32
Energy = -1142.565739369 Hartree (EUMP2 CORRECTED)
O      1.376646     0.129205     0.161991
C      2.011520     1.419897     0.300903
H      3.089952     1.238446     0.348236
H      1.677258     1.906281     1.226794
C      0.122222     0.331534    -0.533915
H      0.105470    -0.358812    -1.387069
H     -0.716434     0.116321     0.135952
C      1.550987     2.203144    -0.915927
H      2.085353     1.849349    -1.808920
H      1.652973     3.287755    -0.838988
C      0.079180     1.796062    -0.977728
H     -0.387044     1.912072    -1.963125
O     -0.659524     2.533605    -0.002469
P     -1.624045     3.802183    -0.504239
O     -2.369291     4.275077     0.711768
O     -2.270443     3.420837    -1.825595
O     -0.402753     4.920711    -0.876079
C     -0.519630     5.638284    -2.094005
H     -1.046509     5.023182    -2.833912
H     -1.113384     6.556679    -1.945402
C      0.854696     6.051008    -2.605987
H      1.311079     6.791486    -1.941232
O      1.783367     4.954660    -2.657230
C      1.400438     4.160996    -3.790182
H      2.297358     3.627888    -4.119172
H      0.639952     3.427924    -3.494195
C      0.846780     5.150083    -4.839235
H     -0.139822     4.832828    -5.191254
H      1.502795     5.225059    -5.712906
C      0.771457     6.486847    -4.074168
H     -0.141751     7.051505    -4.297045
H      1.631148     7.121565    -4.315495
