32
Energy = -1142.563151064 Hartree (EUMP2 CORRECTED)
O      1.729814     0.249801     0.153720
C      2.147345     1.491241    -0.453200
H      3.084442     1.286126    -0.980448
H      2.317108     2.251990     0.320303
C      0.286327     0.286118     0.277148
H     -0.103259    -0.632540    -0.179111
H      0.003428     0.326652     1.333944
C      0.984683     1.886101    -1.347301
H      0.971612     1.257547    -2.248195
H      0.963933     2.942197    -1.625790
C     -0.203868     1.541398    -0.446956
H     -1.138353     1.379566    -0.995653
O     -0.399457     2.561751     0.539646
P     -1.472493     3.794751     0.184198
O     -1.689871     4.568887     1.455869
O     -2.585529     3.253508    -0.691197
O     -0.435625     4.673005    -0.831120
C     -1.074625     5.419203    -1.868317
H     -1.947297     5.963919    -1.485027
H     -1.416821     4.746649    -2.664271
C     -0.031990     6.381692    -2.417946
H      0.969085     5.995776    -2.165744
O     -0.174425     6.449253    -3.857884
C      0.575167     7.591943    -4.293644
H      1.575681     7.272476    -4.620457
H      0.046112     8.012441    -5.154652
C      0.659822     8.560350    -3.089763
H      0.273430     9.556876    -3.328785
H      1.698397     8.678692    -2.761234
C     -0.168341     7.844931    -2.016210
H     -1.226083     8.123897    -2.083582
H      0.175018     8.035415    -0.994029
