32
Energy = -1142.572607769 Hartree (EUMP2 CORRECTED)
O      1.393754     0.004966     0.395163
C      1.891394     1.050849    -0.462253
H      2.721748     0.626458    -1.034204
H      2.260455     1.892156     0.141481
C      0.026701     0.347019     0.728472
H     -0.562037    -0.572745     0.636848
H     -0.029090     0.723336     1.756303
C      0.685407     1.457255    -1.291718
H      0.487755     0.687624    -2.049973
H      0.778592     2.429424    -1.781462
C     -0.429872     1.444798    -0.242959
H     -1.412629     1.246140    -0.681822
O     -0.489454     2.674536     0.497229
P     -1.413892     3.924891    -0.160678
O     -1.752084     4.821091     1.003541
O     -2.397185     3.353407    -1.152266
O     -0.243197     4.703322    -1.094185
C      1.038402     4.942961    -0.525429
H      1.470475     4.017741    -0.129202
H      0.960896     5.669384     0.301156
C      1.923406     5.503541    -1.622641
H      2.910431     5.736922    -1.199340
O      2.160720     4.504669    -2.644520
C      1.256664     4.786356    -3.727855
H      1.654424     4.276898    -4.611270
H      0.255748     4.408319    -3.488284
C      1.266747     6.307379    -3.821959
H      0.399128     6.706693    -4.358955
H      2.178465     6.637838    -4.334303
C      1.290182     6.716600    -2.341385
H      0.273280     6.869146    -1.969118
H      1.865986     7.633086    -2.170834
