32
Energy = -1142.571214995 Hartree (EUMP2 CORRECTED)
O      1.009757    -0.118563     0.382454
C      1.690843     0.915959    -0.356338
H      2.623107     0.478278    -0.728202
H      1.921095     1.760810     0.307089
C     -0.411265     0.166510     0.325892
H     -0.911591    -0.745417    -0.023185
H     -0.776456     0.434608     1.322596
C      0.701777     1.327102    -1.433801
H      0.659442     0.557957    -2.216952
H      0.892801     2.303733    -1.884949
C     -0.605364     1.337685    -0.638443
H     -1.490113     1.232032    -1.275077
O     -0.722807     2.525500     0.151522
P     -1.308116     3.916123    -0.614392
O     -1.769702     4.826659     0.492615
O     -2.109360     3.486898    -1.818287
O      0.139463     4.526567    -1.230963
C      1.014630     5.144290    -0.284184
H      1.301814     4.441209     0.511614
H      0.527396     6.008976     0.179365
C      2.235379     5.579651    -1.069519
H      1.907514     6.149117    -1.949907
O      3.030677     6.471190    -0.231388
C      4.395873     6.027060    -0.210307
H      5.035951     6.915995    -0.216338
H      4.587859     5.461392     0.714282
C      4.551764     5.134204    -1.434660
H      5.392187     4.435678    -1.350398
H      4.697026     5.744841    -2.334252
C      3.185710     4.450236    -1.464439
H      3.142171     3.651079    -0.714066
H      2.925920     4.017480    -2.435179
