32
Energy = -1142.571090764 Hartree (EUMP2 CORRECTED)
O      1.178070    -0.098343     0.323521
C      1.891152     1.151756     0.236585
H      2.954905     0.904979     0.161989
H      1.713563     1.754716     1.137512
C     -0.163194     0.131927    -0.175665
H     -0.376614    -0.659458    -0.904192
H     -0.883121     0.085336     0.647933
C      1.303526     1.832794    -0.988000
H      1.686534     1.359137    -1.902552
H      1.464386     2.911078    -1.029560
C     -0.184360     1.526897    -0.807930
H     -0.760296     1.561807    -1.739172
O     -0.755637     2.433265     0.141787
P     -1.599277     3.753339    -0.441779
O     -2.335202     4.361603     0.720535
O     -2.247359     3.386150    -1.763806
O     -0.239472     4.698227    -0.814189
C     -0.508199     5.813889    -1.662730
H     -1.017059     6.601907    -1.089325
H     -1.150321     5.511351    -2.503243
C      0.808482     6.340064    -2.199659
H      0.598028     7.238101    -2.798135
O      1.695982     6.774017    -1.148712
C      2.632848     5.710670    -0.922485
H      3.492163     6.150041    -0.405886
H      2.174006     4.939323    -0.293269
C      2.946100     5.190530    -2.323711
H      3.363597     4.177116    -2.321419
H      3.667889     5.859852    -2.807161
C      1.575212     5.274741    -3.015815
H      1.045881     4.318752    -2.956335
H      1.657667     5.555695    -4.071273
