32
Energy = -1142.566663063 Hartree (EUMP2 CORRECTED)
O      1.924435     0.563594    -0.768514
C      1.511840     1.533214    -1.760889
H      1.862346     1.161885    -2.729117
H      1.968683     2.508300    -1.551220
C      0.956976     0.591676     0.308446
H      0.569176    -0.428054     0.434453
H      1.441830     0.922064     1.232756
C      0.002045     1.607155    -1.617101
H     -0.466610     0.714723    -2.054664
H     -0.441312     2.509867    -2.043400
C     -0.143008     1.571242    -0.094724
H     -1.141404     1.266750     0.238247
O      0.191845     2.836837     0.486918
P     -0.969920     4.040553     0.479909
O     -0.515893     5.110638     1.444855
O     -2.332412     3.385536     0.502235
O     -0.689087     4.616333    -1.087233
C     -0.631312     6.029905    -1.241636
H     -0.937268     6.253272    -2.272887
H     -1.320085     6.527207    -0.545972
C      0.771516     6.567509    -1.020851
H      1.217054     6.038231    -0.174098
O      1.615915     6.305059    -2.184261
C      2.041996     7.553626    -2.734214
H      3.013755     7.389249    -3.211445
H      1.329456     7.904569    -3.500443
C      2.069675     8.514139    -1.551957
H      2.074007     9.569307    -1.850560
H      2.955477     8.320043    -0.935950
C      0.798926     8.087210    -0.817925
H     -0.079043     8.550971    -1.291138
H      0.781940     8.343611     0.245531
