32
Energy = -1142.568217860 Hartree (EUMP2 CORRECTED)
O      0.485331    -0.094606     0.302151
C      1.193499     0.659409    -0.711009
H      1.631960    -0.070143    -1.399019
H      1.987994     1.256339    -0.247189
C     -0.645500     0.694618     0.738454
H     -1.555847     0.104983     0.564481
H     -0.549026     0.916183     1.806926
C      0.139648     1.561658    -1.329601
H     -0.508722     0.989583    -2.006964
H      0.552645     2.428591    -1.852698
C     -0.641985     1.979610    -0.082828
H     -1.646321     2.358711    -0.306623
O      0.088711     2.958234     0.661917
P      0.067380     4.531889     0.031923
O     -1.320094     4.771798    -0.529459
O      1.319000     4.752557    -0.780911
O      0.208685     5.350962     1.479023
C      0.307655     4.761527     2.774059
H      1.124157     5.276340     3.297534
H      0.544021     3.694107     2.697834
C     -0.970548     4.937510     3.579187
H     -0.848761     4.381970     4.520461
O     -1.188151     6.306414     3.968995
C     -1.884098     6.952068     2.878037
H     -2.479655     7.753049     3.329601
H     -1.153756     7.382039     2.185212
C     -2.725643     5.865509     2.186566
H     -2.538937     5.847078     1.109938
H     -3.796835     6.019247     2.363049
C     -2.243811     4.545797     2.823072
H     -2.053062     3.777229     2.068360
H     -2.981434     4.162789     3.538701
