32
Energy = -1142.568625286 Hartree (EUMP2 CORRECTED)
O      1.447973    -0.102261     0.085834
C      1.911053     0.886730    -0.859250
H      2.647556     0.391658    -1.500095
H      2.385980     1.722552    -0.328557
C      0.090801     0.242575     0.457901
H     -0.535510    -0.639565     0.273280
H      0.053548     0.510672     1.518604
C      0.653195     1.349764    -1.573765
H      0.321402     0.585192    -2.289418
H      0.747396     2.316967    -2.072955
C     -0.329387     1.432128    -0.404212
H     -1.379390     1.393353    -0.713804
O     -0.102096     2.618898     0.367838
P     -0.882399     4.018668    -0.099571
O     -0.773051     5.001021     1.040527
O     -2.181716     3.668417    -0.792842
O      0.250982     4.454036    -1.275230
C     -0.017810     5.666190    -1.984594
H     -0.785430     6.265368    -1.480091
H     -0.398754     5.400829    -2.981186
C      1.259950     6.522414    -2.110105
H      1.420650     6.813478    -3.154870
O      1.121669     7.767604    -1.392918
C      1.329334     7.433145     0.003110
H      1.705185     8.343534     0.480178
H      0.380774     7.135011     0.463184
C      2.322334     6.253827     0.023298
H      1.886910     5.416884     0.574153
H      3.277182     6.528075     0.486713
C      2.497802     5.898815    -1.463869
H      2.569317     4.821246    -1.631197
H      3.384337     6.391214    -1.882402
