32
Energy = -1142.566463349 Hartree (EUMP2 CORRECTED)
O      1.396868     0.249492     1.072092
C      1.726375     1.652083     0.975811
H      2.808858     1.731959     1.114745
H      1.208827     2.218175     1.761268
C      0.182614     0.035887     0.313993
H      0.364295    -0.809263    -0.361729
H     -0.646346    -0.198768     0.989601
C      1.226647     2.062298    -0.398542
H      1.898585     1.676663    -1.177635
H      1.091680     3.137201    -0.533903
C     -0.115848     1.331644    -0.448914
H     -0.463905     1.138001    -1.469767
O     -1.104763     2.041055     0.294116
P     -2.013607     3.280948    -0.369727
O     -1.912052     4.488287     0.530034
O     -3.338214     2.723155    -0.849029
O     -1.045368     3.521767    -1.735504
C     -1.263839     4.736679    -2.453905
H     -0.349725     5.342641    -2.395310
H     -2.087831     5.317371    -2.015977
C     -1.573888     4.420695    -3.905664
H     -1.714862     5.368527    -4.446421
O     -0.436344     3.777213    -4.535870
C     -0.740584     2.377384    -4.633994
H     -0.086164     1.963521    -5.408310
H     -0.543258     1.883281    -3.674642
C     -2.224414     2.343953    -4.974182
H     -2.689533     1.373347    -4.768055
H     -2.360664     2.580019    -6.037120
C     -2.771311     3.462893    -4.077144
H     -3.080976     3.067950    -3.103167
H     -3.629502     3.975209    -4.526710
