32
Energy = -1142.572397396 Hartree (EUMP2 CORRECTED)
O      0.599891     0.050071     0.895224
C      1.605209     0.861794     0.243431
H      2.429225     0.191782    -0.021535
H      1.963501     1.638590     0.929875
C     -0.695604     0.629033     0.608791
H     -1.306476    -0.141818     0.119624
H     -1.173084     0.940228     1.543890
C      0.886562     1.485571    -0.940387
H      0.752448     0.747103    -1.742568
H      1.377648     2.376237    -1.341461
C     -0.462700     1.828274    -0.305549
H     -1.259090     1.978396    -1.043247
O     -0.342019     2.982271     0.526800
P     -0.297785     4.491834    -0.258134
O     -0.986774     4.336627    -1.591557
O      1.090988     5.053992    -0.063547
O     -1.363099     5.272553     0.758145
C     -0.889932     5.653560     2.053483
H     -0.623439     6.717965     2.040667
H      0.001953     5.076303     2.332767
C     -1.996940     5.404813     3.062155
H     -1.629912     5.683832     4.060183
O     -3.133467     6.265544     2.811870
C     -4.090375     5.487930     2.071136
H     -5.054949     5.995803     2.172507
H     -3.796627     5.438298     1.016543
C     -4.032047     4.114768     2.730953
H     -4.430262     3.318580     2.091733
H     -4.607176     4.132452     3.664927
C     -2.529359     3.954830     3.011051
H     -2.032755     3.413493     2.201270
H     -2.337384     3.425251     3.951148
