32
Energy = -1142.568504506 Hartree (EUMP2 CORRECTED)
O      1.226995     0.051605     0.924812
C      1.675241     1.423136     0.952223
H      2.753594     1.399611     1.136639
H      1.173225     1.970428     1.761241
C      0.023010     0.007071     0.122243
H      0.145132    -0.808275    -0.601237
H     -0.847052    -0.186579     0.758080
C      1.270642     1.977214    -0.402905
H      1.942253     1.591452    -1.182376
H      1.230874     3.066433    -0.462762
C     -0.125198     1.373228    -0.559952
H     -0.444685     1.274243    -1.604287
O     -1.083474     2.125013     0.185450
P     -1.943332     3.361976    -0.542268
O     -2.125381     4.466471     0.466965
O     -3.088292     2.771917    -1.342523
O     -0.750682     3.796277    -1.661642
C     -0.928166     5.059687    -2.304019
H     -0.121411     5.731922    -1.983002
H     -1.887798     5.518405    -2.026615
C     -0.871497     4.870060    -3.808800
H     -0.999544     5.850596    -4.290820
O      0.442825     4.406687    -4.211880
C      0.336319     2.997684    -4.467375
H      1.186471     2.724832    -5.101400
H      0.381491     2.442095    -3.522787
C     -1.024350     2.844004    -5.134442
H     -1.406066     1.817381    -5.096973
H     -0.952251     3.152299    -6.185052
C     -1.883381     3.823871    -4.322313
H     -2.363954     3.319295    -3.476772
H     -2.665660     4.292052    -4.930510
