32
Energy = -1142.568878989 Hartree (EUMP2 CORRECTED)
O      1.096795    -0.002101     0.447343
C      1.713752     1.056888    -0.316557
H      2.683488     0.678838    -0.656930
H      1.864917     1.938691     0.320321
C     -0.340629     0.132399     0.311667
H     -0.726665    -0.820952    -0.072389
H     -0.784230     0.348052     1.288778
C      0.721300     1.358449    -1.425802
H      0.752965     0.567600    -2.187724
H      0.854837     2.333173    -1.900226
C     -0.599679     1.284176    -0.657449
H     -1.461832     1.116512    -1.311945
O     -0.815306     2.456954     0.132723
P     -1.354877     3.846279    -0.656688
O     -1.951398     4.741703     0.397431
O     -2.027590     3.408088    -1.935763
O      0.144606     4.485904    -1.105510
C      0.636899     5.607850    -0.373455
H      0.881717     5.317606     0.659841
H     -0.102208     6.413344    -0.329806
C      1.916683     6.050811    -1.068018
H      1.671347     6.642080    -1.959973
O      2.677695     6.931424    -0.195314
C      3.885506     6.251833     0.173412
H      4.622877     7.019854     0.426975
H      3.715330     5.615292     1.056338
C      4.231016     5.406342    -1.044195
H      4.950977     4.608883    -0.826321
H      4.646739     6.046899    -1.831679
C      2.844770     4.881723    -1.429800
H      2.583572     4.005193    -0.827036
H      2.753097     4.596794    -2.481288
