32
Energy = -1142.561457866 Hartree (EUMP2 CORRECTED)
O      2.162629     0.958393     0.196056
C      1.651042     0.605776    -1.112501
H      2.078660    -0.367657    -1.375557
H      1.980212     1.355108    -1.844052
C      1.105035     1.605138     0.943436
H      0.829432     0.957833     1.788460
H      1.465815     2.567952     1.317714
C      0.137015     0.611576    -0.975140
H     -0.211690    -0.319392    -0.506935
H     -0.405204     0.787277    -1.908104
C     -0.059222     1.788442    -0.019408
H     -1.029935     1.784030     0.494418
O      0.141774     3.024065    -0.704384
P     -1.243022     3.693945    -1.440390
O     -2.134539     4.271465    -0.373188
O     -1.711068     2.694912    -2.480611
O     -0.427999     4.947076    -2.160420
C      0.607324     4.613227    -3.081039
H      0.964415     3.594283    -2.891680
H      0.198227     4.637651    -4.100888
C      1.788699     5.618287    -2.964702
H      1.873203     6.205645    -3.886336
O      1.631848     6.578797    -1.918930
C      1.979480     5.912882    -0.682335
H      2.469427     6.668169    -0.057786
H      1.065940     5.559083    -0.195376
C      2.906164     4.739042    -1.065220
H      2.412812     3.789744    -0.843482
H      3.860001     4.766641    -0.526421
C      3.092318     4.916247    -2.581430
H      3.248915     3.967294    -3.108146
H      3.937953     5.579888    -2.800711
