32
Energy = -1142.574990243 Hartree (EUMP2 CORRECTED)
O      0.193134    -0.066267     1.429018
C      1.283185     0.645910     0.804037
H      2.177383     0.026276     0.925153
H      1.435554     1.612551     1.302286
C     -1.028305     0.297040     0.739161
H     -1.505609    -0.632098     0.401732
H     -1.694907     0.831123     1.423785
C      0.836383     0.844959    -0.633934
H      0.921744    -0.098389    -1.190269
H      1.364655     1.639959    -1.165815
C     -0.639335     1.196546    -0.432742
H     -1.247207     1.028284    -1.328401
O     -0.797020     2.552064     0.003935
P     -0.770637     3.756501    -1.168931
O     -1.303460     5.000702    -0.504422
O     -1.260232     3.169141    -2.471071
O      0.890333     3.931959    -1.378902
C      1.606768     4.872424    -0.575714
H      2.491963     4.369193    -0.164124
H      0.966305     5.220621     0.244362
C      2.064917     6.073880    -1.402337
H      2.254663     6.924500    -0.736513
O      3.334753     5.805526    -2.049377
C      3.020380     5.012671    -3.213636
H      3.833325     5.177950    -3.928490
H      2.989479     3.951126    -2.937792
C      1.640575     5.487652    -3.706654
H      0.961218     4.642953    -3.841897
H      1.721365     6.032677    -4.654393
C      1.141938     6.406618    -2.575589
H      0.088742     6.250637    -2.327656
H      1.287958     7.460738    -2.840947
