32
Energy = -1142.555173379 Hartree (EUMP2 CORRECTED)
O      1.617053     0.786177    -0.912535
C      2.090653     2.016167    -0.322934
H      3.118118     2.168399    -0.670020
H      2.074011     1.934994     0.772059
C      0.196982     0.922669    -1.171670
H      0.045833     0.901199    -2.261390
H     -0.333097     0.100068    -0.694207
C      1.101715     3.068778    -0.798506
H      1.284541     3.316961    -1.853186
H      1.095088     3.980080    -0.194572
C     -0.211674     2.298252    -0.646339
H     -1.026432     2.713202    -1.257617
O     -0.590996     2.417478     0.714366
P     -1.030992     1.451122     1.996228
O     -2.537724     1.426365     2.117577
O     -0.126090     1.829277     3.148538
O     -0.529224    -0.042152     1.400978
C     -1.004852    -1.177516     2.132802
H     -1.690917    -1.742461     1.487974
H     -1.556995    -0.867540     3.030583
C      0.165676    -2.057052     2.531212
H     -0.227566    -2.910742     3.104323
O      0.797519    -2.628589     1.360560
C      2.022887    -1.901265     1.137214
H      2.662087    -2.547221     0.525626
H      1.817971    -0.969127     0.601424
C      2.552610    -1.643966     2.541642
H      3.294655    -0.837889     2.576208
H      3.011404    -2.559219     2.938006
C      1.264948    -1.294346     3.300101
H      1.067328    -0.217438     3.268480
H      1.301530    -1.601245     4.351816
