32
Energy = -1142.566953461 Hartree (EUMP2 CORRECTED)
O      0.264730    -0.184997    -0.212921
C      1.095019     0.682916    -1.019817
H      1.491754     0.070503    -1.835409
H      1.920826     1.080410    -0.417175
C     -0.778228     0.623730     0.380794
H     -1.743846     0.184255     0.097255
H     -0.675344     0.614896     1.471391
C      0.164522     1.801150    -1.457191
H     -0.509129     1.451947    -2.251347
H      0.677293     2.709948    -1.783857
C     -0.618508     2.040283    -0.165427
H     -1.569865     2.556511    -0.333393
O      0.181767     2.771745     0.765854
P      0.265516     4.452114     0.567313
O     -0.966034     4.863927    -0.219978
O      1.663126     4.834258     0.159543
O      0.055071     4.892756     2.165148
C     -0.419572     4.062388     3.218167
H      0.211618     4.273659     4.091150
H     -0.322013     3.001606     2.954011
C     -1.865569     4.372968     3.574935
H     -2.142704     3.749145     4.438794
O     -1.996244     5.742678     4.020386
C     -2.534606     6.489244     2.912397
H     -2.941123     7.417397     3.326898
H     -1.743160     6.709486     2.186960
C     -3.576063     5.551934     2.316219
H     -3.844492     5.815306     1.287693
H     -4.479972     5.559051     2.938630
C     -2.848409     4.202851     2.396361
H     -2.302977     4.043257     1.463602
H     -3.532105     3.361671     2.561124
