32
Energy = -1142.563051271 Hartree (EUMP2 CORRECTED)
O      1.295563     0.054077     0.426910
C      2.054586     1.206662    -0.000248
H      3.032341     0.836591    -0.323001
H      2.181072     1.907058     0.835871
C     -0.107156     0.381646     0.285392
H     -0.581841    -0.447523    -0.254420
H     -0.565523     0.492556     1.274049
C      1.206397     1.821607    -1.098932
H      1.275612     1.212725    -2.010534
H      1.423058     2.865510    -1.337418
C     -0.188644     1.703886    -0.485634
H     -0.969867     1.708322    -1.251702
O     -0.386845     2.755921     0.467921
P     -1.169299     4.149405    -0.065218
O     -0.701869     4.418447    -1.479133
O     -1.119703     5.140387     1.065154
O     -2.771637     3.629731    -0.156519
C     -3.264328     2.306342    -0.141938
H     -2.639591     1.648673     0.475366
H     -3.313924     1.901138    -1.169132
C     -4.665317     2.329357     0.452552
H     -5.141119     1.356507     0.264998
O     -4.642349     2.482586     1.879101
C     -4.528241     3.900769     2.156957
H     -5.031469     4.059047     3.116778
H     -3.474034     4.180761     2.236362
C     -5.204493     4.627811     0.978693
H     -4.519273     5.365209     0.556042
H     -6.123852     5.136686     1.291658
C     -5.505602     3.511448    -0.042221
H     -5.241145     3.803438    -1.063469
H     -6.566409     3.234678    -0.017643
