32
Energy = -1142.573318550 Hartree (EUMP2 CORRECTED)
O      0.486636    -0.557847    -0.288623
C      1.403595     0.287269    -1.021265
H      1.978300    -0.369505    -1.681658
H      2.081682     0.797142    -0.325195
C     -0.681042     0.233256     0.034388
H     -1.560766    -0.304411    -0.342631
H     -0.758658     0.355710     1.119915
C      0.514667     1.289221    -1.736207
H      0.020849     0.812102    -2.593925
H      1.021796     2.204365    -2.053689
C     -0.508681     1.593769    -0.640404
H     -1.457827     1.994463    -1.020494
O      0.044643     2.488230     0.328927
P     -0.049572     4.134747    -0.055421
O     -1.518697     4.512534    -0.031155
O      0.864317     4.456404    -1.211657
O      0.694266     4.664923     1.330004
C      0.085363     4.342379     2.584489
H      0.754893     3.659879     3.122766
H     -0.886031     3.852943     2.433888
C     -0.118010     5.615381     3.387371
H     -0.579682     5.348957     4.349112
O      1.148438     6.228890     3.722308
C      1.393831     7.242543     2.729594
H      2.141213     7.921304     3.153398
H      1.777371     6.782778     1.812401
C      0.026584     7.880321     2.504979
H     -0.047125     8.386964     1.536507
H     -0.171331     8.612628     3.297282
C     -0.929244     6.679389     2.614861
H     -1.211278     6.293539     1.630662
H     -1.848262     6.940092     3.151892
