32
Energy = -1142.571042994 Hartree (EUMP2 CORRECTED)
O      0.652958    -0.180569     0.246373
C      1.626616     0.845974     0.544320
H      2.604956     0.355781     0.569111
H      1.411876     1.294981     1.522174
C     -0.442240     0.438828    -0.471444
H     -0.562142    -0.097683    -1.421876
H     -1.361638     0.360169     0.117681
C      1.454282     1.868288    -0.566161
H      1.903330     1.499871    -1.498445
H      1.853490     2.860020    -0.338820
C     -0.068900     1.902966    -0.689842
H     -0.411405     2.304069    -1.649131
O     -0.635826     2.650056     0.389237
P     -0.712122     4.320194     0.235261
O     -0.281980     4.690009    -1.167335
O     -0.116376     4.950137     1.475920
O     -2.380126     4.379506     0.371232
C     -2.986783     5.539125     0.940692
H     -3.653683     5.979949     0.188197
H     -2.229644     6.277398     1.238154
C     -3.794771     5.129386     2.161776
H     -4.295033     6.021020     2.567522
O     -4.858539     4.221778     1.787917
C     -4.378600     2.889118     2.048759
H     -5.261148     2.242654     2.098022
H     -3.713499     2.565900     1.240519
C     -3.622768     3.020025     3.365792
H     -2.900637     2.210645     3.519277
H     -4.335148     3.017068     4.200253
C     -2.945675     4.392995     3.221851
H     -1.912783     4.300453     2.874262
H     -2.933704     4.943958     4.169273
