32
Energy = -1142.567962453 Hartree (EUMP2 CORRECTED)
O      0.695005     0.107379     0.909428
C      1.371318     0.564085    -0.286059
H      1.868147    -0.307987    -0.722862
H      2.121802     1.319882    -0.021747
C     -0.506026     0.896752     1.077109
H     -1.364796     0.211864     1.071896
H     -0.464921     1.429909     2.032503
C      0.278662     1.169351    -1.149935
H     -0.311120     0.376749    -1.630576
H      0.631546     1.883780    -1.898549
C     -0.562097     1.879039    -0.088430
H     -1.590571     2.094460    -0.406432
O      0.082533     3.084056     0.334451
P     -0.243269     4.452358    -0.613162
O     -1.702091     4.811539    -0.426555
O      0.365416     4.253392    -1.982423
O      0.694160     5.519153     0.256481
C      1.470163     5.217436     1.416009
H      2.451721     5.687941     1.271457
H      1.600966     4.134934     1.525316
C      0.843625     5.781108     2.681939
H      1.444598     5.429906     3.533285
O      0.912757     7.218615     2.731622
C     -0.249665     7.722823     2.034425
H     -0.477566     8.694075     2.487159
H     -0.007388     7.858412     0.975499
C     -1.361826     6.675594     2.215324
H     -1.800551     6.395488     1.254388
H     -2.153313     7.046696     2.877185
C     -0.645798     5.459000     2.837150
H     -0.918569     4.526461     2.334578
H     -0.882483     5.367891     3.904184
