32
Energy = -1142.571570590 Hartree (EUMP2 CORRECTED)
O      2.194434     1.218297    -1.372721
C      1.632838     2.349635    -2.080799
H      1.965579     2.270440    -3.120931
H      2.000552     3.287815    -1.649496
C      1.270805     0.844494    -0.321578
H      0.987527    -0.204742    -0.481856
H      1.758141     0.953247     0.652570
C      0.132262     2.223947    -1.885518
H     -0.272826     1.433978    -2.533376
H     -0.413899     3.156347    -2.044806
C      0.066362     1.776652    -0.423438
H     -0.880085     1.292523    -0.156862
O      0.308296     2.874767     0.462886
P     -0.985483     3.869356     0.873589
O     -0.486468     4.759610     1.986394
O     -2.231903     3.019896     0.907754
O     -1.070336     4.798165    -0.535665
C     -0.575940     6.132822    -0.457739
H     -0.954166     6.662097    -1.341329
H     -0.940796     6.620893     0.453500
C      0.937287     6.180741    -0.468706
H      1.328364     5.361548     0.151957
O      1.425871     6.020923    -1.820323
C      2.816806     6.333626    -1.724935
H      3.366340     5.457418    -1.346516
H      3.171751     6.563400    -2.733994
C      2.920610     7.515597    -0.733693
H      3.106404     8.460467    -1.255394
H      3.740407     7.361953    -0.023425
C      1.545424     7.512255    -0.033162
H      0.918809     8.335423    -0.400099
H      1.606613     7.585742     1.057151
