32
Energy = -1142.565518934 Hartree (EUMP2 CORRECTED)
O      1.459038     0.016265     0.287685
C      1.824304     1.173449    -0.495657
H      2.708825     0.894331    -1.076220
H      2.061842     2.019479     0.161690
C      0.041635     0.108848     0.562553
H     -0.406966    -0.854725     0.289387
H     -0.123857     0.309151     1.626269
C      0.585666     1.472831    -1.322240
H      0.487252     0.741101    -2.136583
H      0.555101     2.485994    -1.729617
C     -0.513930     1.265606    -0.276633
H     -1.485387     1.015728    -0.720542
O     -0.617776     2.396190     0.578380
P     -1.400605     3.816267     0.089505
O     -0.334876     4.865632    -0.100729
O     -2.641814     3.978399     0.932118
O     -1.860411     3.349861    -1.466929
C     -3.222327     3.020442    -1.732194
H     -3.896988     3.667801    -1.162587
H     -3.427081     1.973470    -1.445137
C     -3.457733     3.176723    -3.224404
H     -4.433943     2.736987    -3.470788
O     -3.540305     4.551978    -3.629783
C     -2.187957     5.023828    -3.827295
H     -2.248817     5.804672    -4.592752
H     -1.803148     5.445446    -2.894363
C     -1.359843     3.798395    -4.260358
H     -0.481263     3.697299    -3.620099
H     -1.027588     3.883159    -5.301712
C     -2.316763     2.603321    -4.074129
H     -1.828526     1.753815    -3.585004
H     -2.715326     2.269067    -5.039464
