32
Energy = -1142.564600189 Hartree (EUMP2 CORRECTED)
O      1.541637     0.702914     1.240676
C      2.024205     1.111469    -0.053183
H      2.812740     0.406594    -0.334791
H      2.448747     2.123530     0.005814
C      0.175375     1.172425     1.364637
H     -0.423964     0.323924     1.715265
H      0.124562     1.989639     2.091678
C      0.790035     1.076157    -0.939523
H      0.533129     0.033517    -1.168816
H      0.862111     1.631030    -1.877681
C     -0.270200     1.673154    -0.014409
H     -1.277781     1.343691    -0.283879
O     -0.227291     3.105352     0.017399
P     -1.167158     3.949006    -1.119259
O     -1.963213     4.987685    -0.371317
O     -1.765470     2.917480    -2.050012
O      0.031969     4.799409    -1.921415
C      1.428154     4.566315    -1.875683
H      1.792949     4.480051    -2.908561
H      1.665891     3.647375    -1.329289
C      2.120156     5.736790    -1.191391
H      3.205689     5.555045    -1.201549
O      1.917218     6.955041    -1.941245
C      0.837218     7.662771    -1.298151
H      0.900556     8.702140    -1.636302
H     -0.124012     7.222925    -1.584446
C      1.108169     7.466355     0.187608
H      0.218148     7.632581     0.803323
H      1.901906     8.150670     0.512841
C      1.582473     6.005761     0.232655
H      0.745052     5.342232     0.458996
H      2.359249     5.842853     0.988789
