32
Energy = -1142.570434024 Hartree (EUMP2 CORRECTED)
O      1.167196    -0.053590     0.322364
C      1.812243     1.040326    -0.362495
H      2.774235     0.663524    -0.725232
H      1.982576     1.871454     0.334912
C     -0.265163     0.152533     0.227785
H     -0.700919    -0.768611    -0.179419
H     -0.677622     0.352679     1.221967
C      0.830651     1.441608    -1.450079
H      0.847598     0.703683    -2.263623
H      0.983466     2.444618    -1.855581
C     -0.495314     1.353039    -0.690719
H     -1.358158     1.231629    -1.354164
O     -0.692597     2.498087     0.144710
P     -1.331626     3.888039    -0.573826
O     -1.840585     4.746385     0.554066
O     -2.108543     3.457317    -1.793834
O      0.093854     4.578623    -1.159936
C      0.779814     5.475256    -0.283560
H      1.000474     5.003661     0.684568
H      0.175457     6.369303    -0.096899
C      2.066295     5.842001    -0.996557
H      1.829473     6.167108    -2.018119
O      2.676561     6.975958    -0.307564
C      4.011989     6.632933     0.088278
H      4.618113     7.542891     0.025999
H      4.016541     6.276262     1.130084
C      4.437218     5.524852    -0.864864
H      5.271914     4.925487    -0.483363
H      4.728757     5.951611    -1.832382
C      3.130527     4.741869    -0.990339
H      2.986825     4.093692    -0.116986
H      3.075591     4.114174    -1.884834
