32
Energy = -1142.562991803 Hartree (EUMP2 CORRECTED)
O     -0.803652    -0.525289     0.408059
C     -0.226256    -0.255254    -0.891573
H     -0.687953    -0.960891    -1.588659
H      0.856134    -0.421451    -0.864803
C     -0.507655     0.642458     1.192721
H     -1.198598     0.652021     2.039951
H      0.526739     0.619713     1.560881
C     -0.544063     1.212247    -1.175994
H     -1.495947     1.300866    -1.713382
H      0.234910     1.711453    -1.754215
C     -0.689824     1.831507     0.235440
H     -1.713158     2.211778     0.341891
O      0.102280     2.957660     0.586692
P      1.754089     3.139461     0.370652
O      2.423990     3.175870     1.725717
O      1.967534     4.193800    -0.690358
O      2.082948     1.643446    -0.342742
C      3.183570     0.868655     0.132259
H      3.596917     1.309205     1.048974
H      2.815852    -0.142984     0.356572
C      4.239720     0.779520    -0.954205
H      5.054017     0.127738    -0.603526
O      3.685787     0.126231    -2.125400
C      3.420093     1.154626    -3.096185
H      3.351617     0.659489    -4.070443
H      2.476329     1.660646    -2.859563
C      4.595896     2.109773    -2.950223
H      4.397981     3.098184    -3.378548
H      5.482549     1.680896    -3.434228
C      4.756318     2.155148    -1.425161
H      4.136909     2.959515    -1.018375
H      5.792856     2.322555    -1.111808
