32
Energy = -1142.570370978 Hartree (EUMP2 CORRECTED)
O      1.125178    -0.116827     0.152893
C      1.967077     1.057218     0.205961
H      3.001932     0.706721     0.141586
H      1.814501     1.587520     1.154549
C     -0.135833     0.269365    -0.443772
H     -0.315728    -0.395705    -1.298382
H     -0.942806     0.160666     0.288226
C      1.510640     1.911177    -0.963867
H      1.884524     1.492832    -1.908230
H      1.789675     2.965259    -0.881484
C     -0.006668     1.728945    -0.874668
H     -0.530682     1.944354    -1.814208
O     -0.559144     2.529768     0.176344
P     -0.735295     4.157993    -0.181671
O     -1.476534     4.306487    -1.493072
O      0.570063     4.893769     0.068805
O     -1.745792     4.405261     1.120981
C     -2.229506     5.739551     1.295724
H     -3.314528     5.737214     1.132425
H     -1.767060     6.434432     0.579587
C     -1.917683     6.197377     2.710164
H     -2.314560     7.214321     2.844479
O     -2.614964     5.376020     3.676274
C     -1.673713     4.391632     4.142981
H     -2.066855     4.005653     5.089226
H     -1.585446     3.581828     3.410175
C     -0.367744     5.166219     4.274850
H      0.512984     4.514421     4.271245
H     -0.374635     5.740028     5.209981
C     -0.414555     6.097016     3.052160
H      0.135761     5.672571     2.206191
H      0.006785     7.084507     3.272928
