32
Energy = -1142.568726762 Hartree (EUMP2 CORRECTED)
O     -1.144397     0.175485    -0.921308
C     -0.143143     0.812036    -1.748340
H     -0.378129     0.551338    -2.784591
H      0.851193     0.437098    -1.480341
C     -1.021365     0.829961     0.349584
H     -1.960779     0.669274     0.887885
H     -0.188334     0.413219     0.926796
C     -0.272171     2.298666    -1.428195
H      0.654911     2.863486    -1.560295
H     -1.055569     2.746333    -2.051551
C     -0.727769     2.316697     0.051487
H     -1.641181     2.913041     0.154091
O      0.156351     2.877860     1.028962
P      1.826651     2.878336     0.901280
O      2.352543     3.052846     2.304341
O      2.249701     3.721052    -0.280391
O      2.084125     1.290371     0.404595
C      2.566898     0.305798     1.316134
H      2.544409     0.686568     2.346145
H      1.918196    -0.577315     1.231643
C      3.984821    -0.081973     0.927549
H      4.316645    -0.903408     1.579655
O      4.005181    -0.613497    -0.418206
C      4.431305     0.456540    -1.284716
H      4.777367    -0.011737    -2.212070
H      3.594118     1.133566    -1.487202
C      5.524289     1.160666    -0.490626
H      5.700525     2.185318    -0.834508
H      6.460672     0.594175    -0.568292
C      4.966871     1.110389     0.940546
H      4.441095     2.034251     1.193770
H      5.756208     0.963541     1.686499
