32
Energy = -1142.561380285 Hartree (EUMP2 CORRECTED)
O      1.962040     0.852890     0.323319
C      1.379858     0.360562    -0.909445
H      1.696831    -0.681602    -1.023438
H      1.762809     0.950721    -1.751632
C      0.993325     1.704085     0.980017
H      0.671957     1.214737     1.910954
H      1.460064     2.666168     1.211225
C     -0.120970     0.547644    -0.757397
H     -0.551745    -0.259184    -0.148247
H     -0.662780     0.637720    -1.702792
C     -0.168126     1.869091     0.010832
H     -1.121896     2.051264     0.524205
O      0.152338     2.958537    -0.851702
P     -1.148726     3.626000    -1.731443
O     -2.065437     4.352644    -0.783485
O     -1.620600     2.547212    -2.687729
O     -0.234622     4.753609    -2.543372
C      1.003576     4.347813    -3.110666
H      1.374077     3.456123    -2.595744
H      0.866336     4.088331    -4.172705
C      2.044739     5.473706    -3.014988
H      1.925747     6.187415    -3.836955
O      1.948350     6.249714    -1.819220
C      2.436746     5.402565    -0.762156
H      2.818297     6.068790     0.017757
H      1.610140     4.802666    -0.368374
C      3.525902     4.509990    -1.402512
H      3.309056     3.452372    -1.219644
H      4.521750     4.719557    -0.997012
C      3.445323     4.859948    -2.904737
H      3.584422     3.986307    -3.553845
H      4.197061     5.611014    -3.172758
