32
Energy = -1142.564573829 Hartree (EUMP2 CORRECTED)
O     -0.248983    -0.302420     0.592995
C      1.088592     0.120268     0.269740
H      1.669758    -0.786121     0.074971
H      1.531011     0.670389     1.111743
C     -1.121142     0.823751     0.330869
H     -1.996742     0.433017    -0.199810
H     -1.431474     1.290112     1.272098
C      0.906055     1.035995    -0.929861
H      0.691425     0.438576    -1.826452
H      1.757173     1.695791    -1.117834
C     -0.326482     1.841160    -0.502334
H     -0.919144     2.236681    -1.335142
O      0.075025     2.909060     0.354189
P      0.069187     4.488640    -0.229956
O      0.302576     5.370439     0.959847
O     -1.082456     4.601780    -1.214170
O      1.484236     4.514621    -1.145220
C      1.408226     4.150310    -2.524020
H      2.435027     3.917979    -2.828516
H      0.785690     3.259756    -2.670832
C      0.896533     5.290232    -3.405587
H      0.801405     6.194328    -2.785557
O      1.875041     5.524657    -4.455279
C      1.226934     6.325611    -5.455092
H      1.501988     7.381177    -5.315163
H      1.608234     5.994244    -6.427062
C     -0.295998     6.110851    -5.288164
H     -0.777787     5.805432    -6.223668
H     -0.780000     7.035086    -4.953239
C     -0.380480     5.042450    -4.193131
H     -0.332607     4.035295    -4.628726
H     -1.261182     5.108226    -3.550818
