32
Energy = -1142.572240540 Hartree (EUMP2 CORRECTED)
O      1.517996     0.207093     0.401948
C      1.900558     1.325022    -0.426710
H      2.800202     1.022392    -0.971739
H      2.125407     2.200437     0.197135
C      0.083440     0.279070     0.607555
H     -0.334136    -0.696642     0.328748
H     -0.132449     0.491465     1.659357
C      0.682306     1.585948    -1.297964
H      0.615183     0.826204    -2.088572
H      0.654597     2.587600    -1.737361
C     -0.444211     1.408450    -0.278023
H     -1.415175     1.181227    -0.729637
O     -0.541438     2.599301     0.504179
P     -1.927656     3.552749     0.386935
O     -2.193690     4.086404     1.772333
O     -2.932041     2.859100    -0.500681
O     -1.275268     4.797722    -0.534754
C     -0.228053     5.557734     0.061027
H      0.545994     4.893252     0.466591
H     -0.623805     6.178649     0.879670
C      0.369957     6.431349    -1.025181
H      1.152476     7.063777    -0.583022
O      1.038576     5.619961    -2.022201
C      0.136290     5.490060    -3.133526
H      0.738565     5.188791    -3.996680
H     -0.622157     4.729451    -2.913924
C     -0.489173     6.874390    -3.256839
H     -1.423702     6.871390    -3.829054
H      0.218858     7.555006    -3.745104
C     -0.693506     7.258501    -1.783717
H     -1.691296     6.963771    -1.446750
H     -0.569008     8.333346    -1.610789
