32
Energy = -1142.571440704 Hartree (EUMP2 CORRECTED)
O      1.348771    -0.086698     0.177473
C      1.927928     1.161769    -0.266786
H      2.844146     0.908251    -0.808966
H      2.172257     1.791762     0.598015
C     -0.080786     0.106907     0.286143
H     -0.565705    -0.689882    -0.293140
H     -0.387161     0.043579     1.335852
C      0.844272     1.805803    -1.112859
H      0.777198     1.301443    -2.086876
H      0.949023     2.885702    -1.250885
C     -0.396059     1.496690    -0.270408
H     -1.322817     1.516447    -0.856008
O     -0.497437     2.388319     0.841762
P     -1.150280     3.931516     0.597807
O     -0.257786     4.702450    -0.344637
O     -1.605571     4.391137     1.956517
O     -2.482095     3.505117    -0.344266
C     -3.585597     2.898060     0.328100
H     -3.879331     3.499185     1.195729
H     -3.311245     1.887944     0.681587
C     -4.735711     2.791796    -0.657602
H     -5.557202     2.243583    -0.175893
O     -5.270511     4.093939    -0.976921
C     -4.636326     4.514807    -2.197502
H     -5.248952     5.323385    -2.607926
H     -3.622505     4.872886    -1.988661
C     -4.618944     3.249390    -3.049194
H     -3.872262     3.286575    -3.850195
H     -5.606712     3.095484    -3.499716
C     -4.318599     2.158282    -2.007204
H     -3.250887     1.924711    -1.993337
H     -4.872455     1.233969    -2.206454
