32
Energy = -1142.567450090 Hartree (EUMP2 CORRECTED)
O      1.692709    -0.352678    -0.961168
C      2.460442     0.862066    -1.069973
H      3.294477     0.653597    -1.746574
H      2.845148     1.162446    -0.086472
C      0.460320     0.055906    -0.332269
H     -0.298564    -0.678807    -0.618598
H      0.571856     0.081785     0.756782
C      1.454039     1.878803    -1.591405
H      1.724622     2.913479    -1.367684
H      1.324307     1.745005    -2.672727
C      0.154471     1.481912    -0.856367
H     -0.694180     1.471149    -1.549044
O     -0.261274     2.400830     0.160044
P      0.708388     2.794544     1.485288
O      1.906673     3.572572     0.970410
O      0.842171     1.618912     2.419871
O     -0.383829     3.842142     2.164640
C     -0.637331     5.083684     1.501683
H     -1.688124     5.091452     1.185241
H      0.010377     5.194645     0.621822
C     -0.376963     6.232210     2.461330
H     -0.580765     7.175924     1.935153
O     -1.300005     6.202684     3.574073
C     -0.632745     5.511715     4.647518
H     -1.161046     5.780775     5.568100
H     -0.682797     4.430039     4.484532
C      0.804567     6.019602     4.582205
H      1.514764     5.323842     5.041860
H      0.877943     6.984324     5.098872
C      1.041986     6.187290     3.070310
H      1.604624     5.348903     2.649811
H      1.592940     7.108229     2.848268
