32
Energy = -1142.562170685 Hartree (EUMP2 CORRECTED)
O      2.069577     0.628513    -0.042194
C      1.312872     0.275800    -1.225798
H      1.592404    -0.749124    -1.491279
H      1.578398     0.952412    -2.047755
C      1.238938     1.467119     0.795266
H      1.059512     0.938128     1.742039
H      1.758283     2.410307     0.992058
C     -0.145391     0.451855    -0.837897
H     -0.490038    -0.401118    -0.237015
H     -0.811734     0.609826    -1.690263
C     -0.058282     1.706834     0.034032
H     -0.921829     1.845020     0.698223
O      0.132438     2.873321    -0.765385
P     -1.255277     3.497564    -1.536003
O     -2.274395     3.825044    -0.476254
O     -1.546080     2.628518    -2.743974
O     -0.504295     4.899483    -2.015338
C      0.396606     4.758246    -3.110510
H      0.844682     3.757446    -3.089557
H     -0.144908     4.848831    -4.062545
C      1.505857     5.833441    -3.039809
H      1.270798     6.679888    -3.693937
O      1.687419     6.399977    -1.740551
C      2.350084     5.388751    -0.953055
H      2.956758     5.922142    -0.213971
H      1.597699     4.772867    -0.451659
C      3.186569     4.551298    -1.948104
H      2.869416     3.504250    -1.914380
H      4.258273     4.583230    -1.723219
C      2.870323     5.194553    -3.313586
H      2.854158     4.468644    -4.135755
H      3.598432     5.977713    -3.555552
