32
Energy = -1142.573228953 Hartree (EUMP2 CORRECTED)
O      0.804397     0.219157     1.075842
C      1.721105     1.001177     0.273615
H      2.569712     0.350932     0.038579
H      2.067752     1.872517     0.842465
C     -0.539111     0.677212     0.793559
H     -1.117428    -0.181618     0.426385
H     -0.995108     1.064471     1.710868
C      0.905276     1.440980    -0.929550
H      0.776871     0.607411    -1.633519
H      1.322261     2.307279    -1.450326
C     -0.429898     1.774859    -0.259743
H     -1.274647     1.792642    -0.958775
O     -0.350781     3.022001     0.432933
P     -0.380747     4.417843    -0.541111
O     -1.372546     4.181543    -1.652880
O      1.050872     4.857668    -0.754696
O     -1.108075     5.395491     0.590071
C     -0.308860     5.859308     1.683068
H      0.016613     6.887112     1.478904
H      0.583146     5.231594     1.812358
C     -1.151012     5.819602     2.945507
H     -0.534051     6.164993     3.787409
O     -2.254484     6.752957     2.863885
C     -3.413743     5.994931     2.475326
H     -4.287784     6.600105     2.736902
H     -3.392776     5.805274     1.396152
C     -3.285380     4.700725     3.270481
H     -3.881995     3.882867     2.850829
H     -3.607405     4.872872     4.304956
C     -1.774527     4.428492     3.199998
H     -1.533230     3.762103     2.367416
H     -1.390415     3.981720     4.124083
