32
Energy = -1142.571748795 Hartree (EUMP2 CORRECTED)
O      1.002224    -0.452383     0.230126
C      1.918293     0.585590    -0.171515
H      2.821483     0.087056    -0.536802
H      2.169431     1.224901     0.685706
C     -0.335780     0.096995     0.145906
H     -0.948149    -0.627683    -0.403792
H     -0.745188     0.245764     1.150500
C      1.153103     1.374885    -1.220505
H      1.112912     0.809037    -2.161405
H      1.543063     2.379672    -1.401587
C     -0.235147     1.444932    -0.576624
H     -1.051891     1.594095    -1.292811
O     -0.263587     2.479014     0.411092
P     -0.887192     3.966756    -0.054514
O     -0.815107     4.845082     1.163825
O     -2.118731     3.735280    -0.904276
O      0.361394     4.449082    -1.086797
C      0.111969     4.718008    -2.463096
H     -0.961930     4.826864    -2.648664
H      0.491318     3.880634    -3.076316
C      0.853166     5.986507    -2.850382
H      0.799838     6.097830    -3.943038
O      0.246394     7.166641    -2.307914
C      0.768203     7.359485    -0.969321
H      0.809197     8.443868    -0.818081
H      0.092803     6.906867    -0.238240
C      2.153846     6.684844    -0.936786
H      2.176778     5.930156    -0.148394
H      2.955958     7.410511    -0.756759
C      2.292254     6.028794    -2.324410
H      2.742304     5.031531    -2.270766
H      2.901569     6.651064    -2.991141
