32
Energy = -1142.575981938 Hartree (EUMP2 CORRECTED)
O      1.299180     0.026824     0.744849
C      1.803334     0.945981    -0.246202
H      2.645675     0.451940    -0.739907
H      2.153151     1.868247     0.237438
C     -0.099629     0.337506     0.953012
H     -0.655733    -0.604642     0.871682
H     -0.242801     0.768734     1.949569
C      0.611270     1.222066    -1.145088
H      0.423916     0.350752    -1.787853
H      0.704386     2.119345    -1.760426
C     -0.516691     1.352556    -0.116757
H     -1.507504     1.149192    -0.538499
O     -0.525937     2.643979     0.507125
P     -1.308881     3.900126    -0.300009
O     -1.319433     5.058102     0.664485
O     -2.500893     3.333422    -1.031320
O     -0.181974     4.225992    -1.509619
C      1.011863     4.905599    -1.129916
H      1.688805     4.221569    -0.597594
H      0.775711     5.750224    -0.466810
C      1.674094     5.396013    -2.402326
H      2.602821     5.923306    -2.142757
O      2.074620     4.276339    -3.231677
C      1.084671     4.140312    -4.266041
H      1.546039     3.558704    -5.070582
H      0.203268     3.617008    -3.876223
C      0.748542     5.578267    -4.641086
H     -0.204723     5.669126    -5.173710
H      1.544865     5.989119    -5.273721
C      0.729799     6.261041    -3.266220
H     -0.277051     6.233987    -2.839767
H      1.063102     7.303787    -3.310111
