32
Energy = -1142.574922876 Hartree (EUMP2 CORRECTED)
O      1.191697    -0.041339     0.658716
C      1.852882     0.984049    -0.110045
H      2.758441     0.534599    -0.528525
H      2.129890     1.825778     0.539793
C     -0.217248     0.294243     0.705893
H     -0.772764    -0.612718     0.438584
H     -0.492822     0.615859     1.715946
C      0.817404     1.409078    -1.137021
H      0.729398     0.637700    -1.914372
H      1.014409     2.376418    -1.604320
C     -0.453887     1.438713    -0.285100
H     -1.369574     1.312316    -0.872470
O     -0.541185     2.654805     0.470344
P     -1.381414     3.942090    -0.223945
O     -1.620128     4.914851     0.902200
O     -2.422814     3.402024    -1.172241
O     -0.170851     4.572526    -1.215106
C      1.020414     5.018994    -0.572687
H      1.536610     4.185334    -0.079585
H      0.771250     5.773202     0.190195
C      1.925566     5.623610    -1.631104
H      2.779334     6.108458    -1.139250
O      2.498043     4.570941    -2.454998
C      1.713541     4.505170    -3.657674
H      2.315410     3.971094    -4.399858
H      0.777096     3.965518    -3.469966
C      1.444634     5.965120    -3.995164
H      0.599214     6.096915    -4.679609
H      2.338457     6.407045    -4.451869
C      1.181783     6.565052    -2.606241
H      0.113283     6.553104    -2.377114
H      1.545322     7.595693    -2.524876
