32
Energy = -1142.567459130 Hartree (EUMP2 CORRECTED)
O      1.910660     0.381672    -0.134430
C      2.304722     1.737270    -0.388100
H      3.199615     1.701659    -1.017325
H      2.530218     2.255402     0.554929
C      0.528211     0.440780     0.318335
H      0.003272    -0.392236    -0.160662
H      0.498071     0.344244     1.404626
C      1.075709     2.336508    -1.053927
H      0.979101     1.933934    -2.070718
H      1.051729     3.429828    -1.082663
C     -0.036987     1.799251    -0.153192
H     -0.979564     1.648085    -0.697481
O     -0.280075     2.794644     0.851333
P     -0.697241     2.441023     2.442176
O     -1.378389     3.681155     2.961109
O      0.426485     1.712033     3.135186
O     -1.856280     1.254623     2.125219
C     -3.092028     1.708741     1.576392
H     -2.933865     2.158596     0.585804
H     -3.542811     2.469099     2.230958
C     -4.007918     0.507140     1.453305
H     -4.975912     0.838620     1.051556
O     -3.484871    -0.440189     0.489363
C     -2.866090    -1.503255     1.233576
H     -2.790537    -2.361331     0.558139
H     -1.868256    -1.196089     1.568155
C     -3.802592    -1.712239     2.416799
H     -3.332526    -2.256568     3.243522
H     -4.690384    -2.267478     2.090225
C     -4.160876    -0.265332     2.782652
H     -3.450259     0.129883     3.514247
H     -5.173073    -0.172031     3.191514
