32
Energy = -1142.566416169 Hartree (EUMP2 CORRECTED)
O      1.086629    -0.281330     1.068208
C      1.330265    -0.240011    -0.363052
H      0.717285    -1.025918    -0.824166
H      2.386236    -0.473205    -0.543447
C      0.542343     0.991947     1.464664
H     -0.163434     0.814665     2.281083
H      1.334167     1.675813     1.800590
C      0.938719     1.156145    -0.844984
H      0.533490     1.148426    -1.860227
H      1.778353     1.855673    -0.806032
C     -0.098464     1.562948     0.205833
H     -1.046598     1.042112     0.002571
O     -0.419240     2.933569     0.405440
P      0.188492     4.191800    -0.504901
O      1.702029     4.134703    -0.571550
O     -0.579441     5.409207    -0.062237
O     -0.410549     3.679966    -1.999667
C      0.416436     3.756784    -3.161391
H      0.365131     2.784856    -3.672324
H      1.457257     3.955699    -2.872210
C     -0.075798     4.827250    -4.120884
H      0.637722     4.887093    -4.955358
O     -1.338522     4.476629    -4.720113
C     -2.379468     4.924755    -3.820652
H     -3.239032     5.174153    -4.452895
H     -2.646870     4.108881    -3.141319
C     -1.811232     6.124994    -3.043094
H     -1.882222     5.967864    -1.964166
H     -2.333463     7.053591    -3.302352
C     -0.329314     6.185496    -3.462400
H      0.325306     6.365077    -2.603890
H     -0.162131     6.977257    -4.202689
