32
Energy = -1142.573669095 Hartree (EUMP2 CORRECTED)
O     -0.015953    -0.455337     0.536890
C      1.195826     0.249682     0.183204
H      1.992975    -0.498628     0.132498
H      1.435662     0.993897     0.953315
C     -1.132657     0.265252    -0.038846
H     -1.700281    -0.442330    -0.657427
H     -1.771245     0.657425     0.759083
C      0.872066     0.926740    -1.137081
H      0.878811     0.191964    -1.953818
H      1.521835     1.765330    -1.397562
C     -0.553568     1.408854    -0.870307
H     -1.117542     1.600256    -1.789323
O     -0.537436     2.570082    -0.036858
P     -0.296888     4.067102    -0.764619
O     -1.410198     4.990457    -0.326939
O      0.093611     3.829774    -2.206623
O      1.101283     4.500921     0.046641
C      1.060534     5.481278     1.085449
H      1.595827     5.069313     1.951162
H      0.020600     5.699520     1.359439
C      1.747417     6.760571     0.638012
H      1.638712     7.505086     1.439749
O      3.167537     6.585177     0.465083
C      3.385828     6.108376    -0.882740
H      4.353147     6.517437    -1.196245
H      3.434081     5.014647    -0.876674
C      2.200535     6.601635    -1.733188
H      1.701222     5.761604    -2.221882
H      2.527554     7.311329    -2.502480
C      1.258663     7.277862    -0.716820
H      0.206484     7.032470    -0.891800
H      1.377169     8.367904    -0.744001
