32
Energy = -1142.568511215 Hartree (EUMP2 CORRECTED)
O      2.256403     0.836794    -0.261080
C      2.491349     2.242097    -0.099680
H      3.455902     2.464539    -0.566385
H      2.524925     2.508860     0.966702
C      0.836450     0.637647    -0.022190
H      0.500890    -0.137048    -0.717864
H      0.670836     0.310655     1.008871
C      1.287791     2.879129    -0.777886
H      1.387479     2.777889    -1.866162
H      1.113361     3.927424    -0.517898
C      0.147992     1.999894    -0.262177
H     -0.673507     1.915633    -0.984400
O     -0.329186     2.603398     0.940517
P     -1.472752     1.810550     1.896240
O     -2.596586     2.786489     2.153317
O     -0.750683     1.033852     2.968493
O     -1.988352     0.645633     0.792688
C     -3.138164     0.884612    -0.019381
H     -2.848363     0.744462    -1.070634
H     -3.512707     1.906391     0.129827
C     -4.224051    -0.118073     0.336084
H     -5.085461     0.049848    -0.326813
O     -3.779076    -1.467069     0.066384
C     -3.296401    -2.003195     1.314963
H     -3.285991    -3.092301     1.203329
H     -2.286816    -1.630530     1.517240
C     -4.292482    -1.489563     2.348298
H     -3.876690    -1.478532     3.361327
H     -5.189289    -2.121269     2.342499
C     -4.612518    -0.076895     1.830626
H     -4.028594     0.685303     2.352877
H     -5.672137     0.173357     1.954938
