32
Energy = -1142.571684089 Hartree (EUMP2 CORRECTED)
O      1.767494    -0.056877     0.239398
C      1.127827    -0.191872    -1.051660
H      1.263709    -1.231800    -1.365104
H      1.604515     0.478282    -1.777756
C      1.043637     0.943552     0.994158
H      0.698888     0.476128     1.926378
H      1.706944     1.783752     1.224339
C     -0.315731     0.216576    -0.815916
H     -0.862131    -0.587022    -0.303451
H     -0.844654     0.513170    -1.725839
C     -0.123633     1.406583     0.127725
H     -1.018790     1.651308     0.713634
O      0.312146     2.561883    -0.591224
P     -0.887746     3.392553    -1.456792
O     -2.050804     3.664682    -0.535594
O     -1.026665     2.732080    -2.812611
O     -0.024248     4.806319    -1.607024
C      1.231032     4.745973    -2.290826
H      1.101089     4.346277    -3.304373
H      1.911973     4.087485    -1.731638
C      1.819692     6.150246    -2.356113
H      2.905392     6.078376    -2.494180
O      1.340566     6.887470    -3.501467
C      0.029844     7.370776    -3.140639
H     -0.155393     8.252996    -3.761725
H     -0.719144     6.602466    -3.361591
C      0.083925     7.668065    -1.629741
H     -0.760554     7.201611    -1.117941
H      0.068732     8.746215    -1.432398
C      1.413432     7.035164    -1.172314
H      1.300897     6.460732    -0.248493
H      2.181120     7.804019    -1.024181
