32
Energy = -1142.565280708 Hartree (EUMP2 CORRECTED)
O      0.949557    -0.177560     0.691363
C      1.521245     0.658758    -0.330956
H      2.276176     0.056884    -0.846354
H      2.003325     1.536705     0.122408
C     -0.331522     0.404823     1.031576
H     -1.029130    -0.427909     1.170861
H     -0.250849     0.982857     1.959549
C      0.327526     1.059650    -1.182712
H      0.016070     0.207384    -1.800640
H      0.479813     1.930063    -1.826948
C     -0.735550     1.344758    -0.115569
H     -1.747911     1.159426    -0.487380
O     -0.656035     2.686426     0.382892
P     -1.418086     3.891995    -0.529253
O     -1.741125     4.988581     0.452375
O     -2.388460     3.246054    -1.486934
O     -0.112987     4.394083    -1.474786
C      1.135966     4.595204    -0.818814
H      1.571016     3.630843    -0.527477
H      1.005143     5.195605     0.090199
C      2.104103     5.279177    -1.792516
H      2.088142     6.364149    -1.636734
O      3.467535     4.869757    -1.493448
C      3.853565     3.939003    -2.511520
H      4.946372     3.886586    -2.501879
H      3.444100     2.937785    -2.297833
C      3.243266     4.514260    -3.781190
H      3.197634     3.793879    -4.606235
H      3.832622     5.380206    -4.105878
C      1.856990     4.935892    -3.276027
H      1.138544     4.115399    -3.354225
H      1.437626     5.785259    -3.823044
