32
Energy = -1142.565204898 Hartree (EUMP2 CORRECTED)
O      1.729090    -0.106658     0.697074
C      1.723075     0.113051    -0.738005
H      1.118691    -0.680166    -1.200487
H      2.752384     0.022566    -1.102627
C      1.003850     0.973290     1.319127
H      0.424324     0.558560     2.149068
H      1.692207     1.740545     1.698447
C      1.123323     1.496152    -0.963494
H      0.636798     1.593199    -1.938607
H      1.868243     2.290597    -0.880580
C      0.148780     1.582029     0.213902
H     -0.716956     0.930251     0.010556
O     -0.351439     2.835838     0.648749
P     -0.369108     4.241026    -0.258494
O      0.887102     4.368906    -1.094560
O     -0.865346     5.303490     0.684549
O     -1.647121     3.849843    -1.287372
C     -1.450426     3.806066    -2.700769
H     -1.886189     2.866727    -3.069464
H     -0.377659     3.834485    -2.934821
C     -2.148241     4.970311    -3.384815
H     -1.901743     4.933969    -4.455810
O     -3.582903     4.862602    -3.316332
C     -3.998815     5.453763    -2.062492
H     -4.996326     5.870792    -2.241085
H     -4.057126     4.674272    -1.296213
C     -2.941291     6.509296    -1.692597
H     -2.540833     6.325672    -0.692498
H     -3.358495     7.522711    -1.727541
C     -1.835366     6.328583    -2.751821
H     -0.832425     6.359355    -2.314206
H     -1.903006     7.104677    -3.523833
