32
Energy = -1142.567780238 Hartree (EUMP2 CORRECTED)
O      0.705344    -0.248637     0.750234
C      1.462268     0.284872    -0.361569
H      2.058260    -0.539960    -0.764871
H      2.129796     1.081231    -0.008011
C     -0.552933     0.464294     0.821088
H     -1.362737    -0.271456     0.724239
H     -0.631478     0.977269     1.784678
C      0.417815     0.838598    -1.314815
H     -0.070493     0.020207    -1.861793
H      0.780228     1.588378    -2.021835
C     -0.563544     1.468874    -0.328011
H     -1.567532     1.612792    -0.746852
O     -0.044213     2.700631     0.177686
P     -0.378314     4.091818    -0.732697
O     -1.573706     4.768624    -0.094665
O     -0.305259     3.756062    -2.202476
O      0.998097     4.942388    -0.328733
C      1.654784     4.773008     0.927530
H      2.649198     4.346358     0.740500
H      1.098308     4.092739     1.584152
C      1.794301     6.125834     1.604133
H      2.310416     5.983233     2.565183
O      2.646529     7.004371     0.830862
C      1.779506     7.877319     0.084622
H      2.383838     8.739585    -0.215751
H      1.397043     7.356834    -0.800841
C      0.658699     8.204301     1.063494
H     -0.247195     8.568958     0.566845
H      1.002865     8.967343     1.772920
C      0.440430     6.853099     1.761538
H     -0.354756     6.286314     1.265531
H      0.173635     6.972058     2.818026
