32
Energy = -1142.553261773 Hartree (EUMP2 CORRECTED)
O      1.125238    -0.061932     0.095176
C      1.839415     1.182450    -0.063143
H      2.870828     0.923668    -0.323356
H      1.826970     1.750202     0.876900
C     -0.274898     0.212817    -0.154134
H     -0.633035    -0.548454    -0.857971
H     -0.842397     0.152536     0.780572
C      1.072723     1.924613    -1.143826
H      1.283433     1.472319    -2.124516
H      1.264234     3.000461    -1.173285
C     -0.372041     1.631239    -0.727985
H     -1.093967     1.696404    -1.551158
O     -0.772117     2.506070     0.330195
P     -1.598475     3.907434    -0.090986
O     -1.960331     4.581140     1.201140
O     -2.571176     3.571538    -1.206480
O     -0.313917     4.755560    -0.796948
C     -0.449033     5.129890    -2.156566
H     -0.842911     4.285382    -2.736314
H     -1.169478     5.953925    -2.267376
C      0.907991     5.572135    -2.736367
H      0.970733     6.672891    -2.763559
O      2.002271     5.085513    -1.928496
C      3.125835     4.765078    -2.767454
H      4.000613     5.325251    -2.414647
H      3.333294     3.691359    -2.660142
C      2.720374     5.119342    -4.200281
H      3.180337     4.458719    -4.943733
H      3.000824     6.151877    -4.441294
C      1.202639     4.987645    -4.116260
H      0.905416     3.931777    -4.120832
H      0.668255     5.501842    -4.924044
