32
Energy = -1142.569574202 Hartree (EUMP2 CORRECTED)
O      1.946050     1.072692     1.285912
C      1.922751     2.373660     0.657769
H      2.965149     2.666942     0.499453
H      1.426454     3.102276     1.310798
C      0.726448     0.385417     0.919066
H      1.010224    -0.586888     0.495794
H      0.099825     0.237499     1.804546
C      1.119169     2.167408    -0.615088
H      1.721683     1.641371    -1.368361
H      0.724550     3.095288    -1.036553
C     -0.002186     1.260304    -0.102358
H     -0.479814     0.675561    -0.895491
O     -0.977738     2.014411     0.615358
P     -2.056758     3.035419    -0.166719
O     -1.522893     4.452531    -0.135553
O     -3.440682     2.658780     0.298737
O     -1.822982     2.446014    -1.732072
C     -1.666772     3.359507    -2.818751
H     -0.786196     3.041112    -3.394663
H     -1.498736     4.374005    -2.433515
C     -2.876588     3.338338    -3.736527
H     -2.724734     4.103682    -4.511217
O     -2.994907     2.090657    -4.448405
C     -3.741055     1.182270    -3.606098
H     -4.292495     0.522498    -4.285420
H     -3.043066     0.588971    -3.006011
C     -4.645239     2.044508    -2.707869
H     -4.480980     1.823954    -1.650397
H     -5.705262     1.890879    -2.942018
C     -4.213976     3.493264    -3.008518
H     -4.127090     4.085934    -2.092543
H     -4.929653     3.985323    -3.678138
