32
Energy = -1142.573405608 Hartree (EUMP2 CORRECTED)
O      1.664309     0.120877     0.035846
C      2.146858     1.418627     0.452535
H      3.238019     1.390889     0.371770
H      1.858722     1.608126     1.494571
C      0.341389     0.299581    -0.524849
H      0.347284    -0.134612    -1.533056
H     -0.398129    -0.214911     0.097427
C      1.464085     2.400300    -0.483402
H      1.936765     2.368350    -1.474750
H      1.419203     3.432283    -0.125925
C      0.059826     1.801265    -0.553317
H     -0.506776     2.105882    -1.440420
O     -0.683391     2.117342     0.633773
P     -1.505008     3.569640     0.667383
O     -0.584878     4.711369     0.288003
O     -2.356840     3.570924     1.913469
O     -2.475366     3.216261    -0.667074
C     -3.412297     4.216247    -1.064690
H     -3.130633     4.582778    -2.060675
H     -3.414271     5.067732    -0.368556
C     -4.799610     3.600242    -1.113415
H     -5.512815     4.362796    -1.459874
O     -4.845714     2.542915    -2.103223
C     -4.729108     1.297504    -1.392960
H     -5.109160     0.517292    -2.060787
H     -3.678637     1.105407    -1.144666
C     -5.562325     1.511322    -0.135781
H     -5.311642     0.807365     0.665507
H     -6.626678     1.402123    -0.379056
C     -5.220267     2.963766     0.229119
H     -4.390650     3.006599     0.942604
H     -6.075185     3.491379     0.667319
