32
Energy = -1142.572590267 Hartree (EUMP2 CORRECTED)
O      0.923254    -0.382624     0.756531
C      1.767334     0.324795    -0.172787
H      2.513871    -0.390032    -0.534254
H      2.270466     1.159771     0.332571
C     -0.398420     0.218503     0.713410
H     -1.114880    -0.580504     0.481748
H     -0.637043     0.664506     1.683310
C      0.811344     0.839125    -1.237557
H      0.506359     0.017466    -1.899097
H      1.201093     1.669022    -1.833366
C     -0.362642     1.294692    -0.374640
H     -1.303406     1.382581    -0.929203
O     -0.007874     2.555620     0.194430
P     -1.244392     3.688318     0.388440
O     -1.739683     3.610386     1.818655
O     -2.155287     3.620612    -0.813855
O     -0.298631     5.044135     0.212608
C      0.449490     5.517792     1.336802
H      1.507026     5.558004     1.044406
H      0.326769     4.842826     2.193528
C     -0.023894     6.908017     1.725199
H      0.525966     7.219888     2.624602
O      0.290680     7.891219     0.719562
C     -0.788755     7.890520    -0.243099
H     -0.875737     8.922337    -0.602343
H     -0.530559     7.230292    -1.077043
C     -2.045384     7.384875     0.490650
H     -2.459296     6.512472    -0.020073
H     -2.820978     8.158305     0.540352
C     -1.541198     7.006003     1.897149
H     -1.970238     6.064505     2.254096
H     -1.766615     7.803212     2.615938
