32
Energy = -1142.557478043 Hartree (EUMP2 CORRECTED)
O      1.124081    -0.059188     0.146564
C      1.852692     1.151372    -0.150921
H      2.849450     0.846140    -0.485080
H      1.939478     1.773355     0.749963
C     -0.285232     0.238589    -0.005644
H     -0.715821    -0.547601    -0.638109
H     -0.776654     0.240261     0.973005
C      1.011362     1.851872    -1.203308
H      1.120037     1.335299    -2.168550
H      1.229609     2.916940    -1.317578
C     -0.397130     1.627150    -0.644732
H     -1.188270     1.672415    -1.403089
O     -0.678511     2.566530     0.396861
P     -1.484520     3.977696    -0.028095
O     -1.717772     4.726117     1.252723
O     -2.553844     3.633925    -1.048456
O     -0.227859     4.735471    -0.873915
C     -0.461532     5.046806    -2.235849
H     -0.762186     4.139153    -2.776997
H     -1.276392     5.776368    -2.353980
C      0.814232     5.610410    -2.861216
H      0.898425     6.689161    -2.659037
O      1.978307     4.967735    -2.277358
C      2.915261     4.601310    -3.300865
H      3.917405     4.893318    -2.966576
H      2.894769     3.508629    -3.431090
C      2.454638     5.314964    -4.566890
H      2.772957     4.806445    -5.484045
H      2.835500     6.343149    -4.591254
C      0.943355     5.309894    -4.356265
H      0.534355     4.312837    -4.560700
H      0.409347     6.034111    -4.982716
