32
Energy = -1142.566075958 Hartree (EUMP2 CORRECTED)
O      0.117891    -0.760131     0.186442
C      0.733963    -0.172363    -0.978754
H      0.763352    -0.950537    -1.747583
H      1.749018     0.166880    -0.736962
C     -0.223468     0.358533     1.031365
H     -1.091414     0.053919     1.625118
H      0.619515     0.612783     1.682722
C     -0.179623     1.001875    -1.300294
H     -1.107527     0.616764    -1.743357
H      0.262508     1.754310    -1.953404
C     -0.509514     1.559933     0.094730
H     -1.563757     1.853974     0.145036
O      0.167118     2.745147     0.542879
P      1.794064     3.067783     0.399248
O      2.616262     1.913199     0.936941
O      1.983761     4.497382     0.843121
O      1.891242     2.996404    -1.282611
C      3.199281     2.947970    -1.851922
H      3.314794     1.987787    -2.374094
H      3.977835     3.012972    -1.078945
C      3.345847     4.089521    -2.841695
H      4.335803     4.021702    -3.317049
O      2.382742     3.942472    -3.915819
C      1.311638     4.865783    -3.652135
H      0.788395     5.021269    -4.601453
H      0.626758     4.442618    -2.907339
C      2.016607     6.101158    -3.108702
H      1.344635     6.768578    -2.557845
H      2.467568     6.660639    -3.938067
C      3.089892     5.473572    -2.208239
H      2.716324     5.358447    -1.184901
H      4.007718     6.071726    -2.174710
