32
Energy = -1142.562686210 Hartree (EUMP2 CORRECTED)
O      1.939901     0.460071    -1.005553
C      0.806463     0.397776    -1.905944
H      0.864759    -0.562761    -2.428260
H      0.864674     1.215864    -2.633649
C      1.526933     1.142633     0.201053
H      1.600566     0.436589     1.040581
H      2.189563     1.996025     0.377715
C     -0.415922     0.558699    -1.018562
H     -0.643290    -0.379658    -0.494538
H     -1.301287     0.906550    -1.557043
C      0.090936     1.597972    -0.017214
H     -0.502611     1.638585     0.904033
O      0.154403     2.897729    -0.609468
P     -1.333254     3.638301    -0.935894
O     -2.268946     3.346159     0.212293
O     -1.689753     3.334187    -2.376354
O     -0.818013     5.221082    -0.829879
C      0.539723     5.657676    -0.842883
H      1.201910     4.863148    -0.487257
H      0.583970     6.488025    -0.127128
C      1.057945     6.150139    -2.221491
H      1.241101     7.229875    -2.171443
O      2.353126     5.571306    -2.497804
C      2.060057     4.278222    -3.071357
H      2.975433     3.941966    -3.567445
H      1.793059     3.570268    -2.277481
C      0.873338     4.514082    -4.011816
H      0.178992     3.669196    -4.007873
H      1.222690     4.693453    -5.035465
C      0.190832     5.774794    -3.432147
H     -0.843404     5.573163    -3.147612
H      0.210507     6.596894    -4.156895
