32
Energy = -1142.573967129 Hartree (EUMP2 CORRECTED)
O      1.006445    -0.185143     0.110253
C      1.795720     0.970932    -0.253113
H      2.692332     0.594701    -0.755465
H      2.083244     1.526527     0.648812
C     -0.382577     0.220804     0.137144
H     -0.939936    -0.468095    -0.511347
H     -0.767027     0.161064     1.160992
C      0.874790     1.801894    -1.128693
H      0.788777     1.346333    -2.124947
H      1.143492     2.856700    -1.225572
C     -0.444524     1.663128    -0.369266
H     -1.326611     1.847284    -0.994757
O     -0.460414     2.522905     0.774654
P     -1.047768     4.089295     0.537030
O     -0.371851     4.670912    -0.681670
O     -1.119130     4.720758     1.901234
O     -2.599649     3.685469     0.019704
C     -3.612124     3.557167     1.017492
H     -3.747337     4.502757     1.554432
H     -3.334068     2.781100     1.749226
C     -4.899884     3.151588     0.324704
H     -5.645411     2.904630     1.092589
O     -5.478872     4.220912    -0.443608
C     -4.834720     4.220451    -1.736569
H     -5.577593     4.599585    -2.446650
H     -3.966595     4.885295    -1.714062
C     -4.404337     2.765999    -2.012034
H     -3.337556     2.731077    -2.243602
H     -4.960303     2.331410    -2.851059
C     -4.705068     2.023547    -0.694687
H     -3.896835     1.344740    -0.403033
H     -5.632957     1.445235    -0.777783
