32
Energy = -1142.567942456 Hartree (EUMP2 CORRECTED)
O      0.047257     1.064581    -2.258091
C      1.069828     2.051535    -2.533109
H      0.832403     2.481967    -3.510587
H      2.045110     1.548028    -2.594461
C     -0.005372     0.984819    -0.820551
H     -0.909613     0.431802    -0.555761
H      0.876098     0.470588    -0.424258
C      1.030188     3.059222    -1.372058
H      1.978138     3.099699    -0.828682
H      0.757344     4.068810    -1.697091
C     -0.032816     2.466310    -0.426924
H     -1.024399     2.850024    -0.698881
O      0.122202     2.840484     0.940279
P      1.294175     2.167693     1.940237
O      1.004041     2.717083     3.314011
O      2.632782     2.206741     1.241263
O      0.856885     0.546045     1.886344
C     -0.274296     0.119167     2.649469
H     -1.025186    -0.284800     1.956257
H     -0.706539     0.958964     3.210099
C      0.158507    -0.970831     3.615119
H     -0.725160    -1.321756     4.167802
O      0.651695    -2.123886     2.893361
C      2.088339    -2.022576     2.876291
H      2.470218    -3.023938     2.652275
H      2.404375    -1.313235     2.103554
C      2.437762    -1.515353     4.270515
H      3.426813    -1.046372     4.313689
H      2.414462    -2.350122     4.981916
C      1.300517    -0.519883     4.552427
H      1.594296     0.506622     4.316494
H      0.983987    -0.544472     5.601260
