32
Energy = -1142.561765343 Hartree (EUMP2 CORRECTED)
O      2.266925     1.269652     0.065758
C      1.676763     0.697475    -1.129145
H      2.121618    -0.293616    -1.270420
H      1.924626     1.331002    -1.989362
C      1.226462     1.930635     0.821413
H      1.035203     1.355648     1.739764
H      1.562323     2.938380     1.081804
C      0.175944     0.679535    -0.883948
H     -0.108551    -0.190853    -0.276525
H     -0.423320     0.713534    -1.797900
C     -0.002182     1.964016    -0.072388
H     -0.939411     2.000768     0.499180
O      0.109714     3.114072    -0.910621
P     -1.318919     3.566364    -1.731330
O     -2.360843     3.943684    -0.710540
O     -1.544824     2.534808    -2.819731
O     -0.684554     4.957549    -2.373891
C      0.451481     4.808679    -3.226974
H      0.691573     3.751947    -3.390371
H      0.163932     5.238192    -4.196397
C      1.682901     5.574579    -2.679123
H      2.117840     6.134879    -3.519167
O      1.359132     6.566020    -1.698617
C      1.649172     5.981376    -0.417248
H      1.700701     6.807476     0.298949
H      0.853966     5.281999    -0.136259
C      2.974805     5.261065    -0.649817
H      3.195716     4.499647     0.106303
H      3.791781     5.993338    -0.660199
C      2.754696     4.652491    -2.045417
H      2.369294     3.634978    -1.943058
H      3.672316     4.622177    -2.643666
