32
Energy = -1142.570848369 Hartree (EUMP2 CORRECTED)
O      0.915482    -0.322042    -0.433061
C      1.893230     0.702769    -0.146853
H      2.877946     0.250456    -0.299962
H      1.797202     1.033844     0.895532
C     -0.293678     0.337468    -0.878555
H     -0.583116    -0.116894    -1.834549
H     -1.091029     0.194479    -0.141942
C      1.554185     1.831587    -1.103898
H      1.879792     1.572882    -2.120754
H      1.947081     2.811698    -0.820609
C      0.026594     1.826270    -1.022243
H     -0.462774     2.274450    -1.896686
O     -0.418665     2.476185     0.174755
P     -0.593551     4.140530     0.053072
O     -1.732022     4.480871    -0.885676
O      0.779694     4.764500    -0.113576
O     -1.092671     4.291164     1.636901
C     -1.991107     5.356310     1.962544
H     -2.856824     4.915200     2.473670
H     -2.342040     5.856404     1.050031
C     -1.331012     6.357814     2.894918
H     -2.038630     7.183345     3.058626
O     -1.086356     5.798745     4.200605
C      0.197383     5.133677     4.151808
H      0.625300     5.227644     5.156291
H      0.048020     4.075555     3.913740
C      1.022669     5.836679     3.058847
H      1.359318     5.129954     2.297319
H      1.898038     6.344924     3.480572
C      0.042573     6.842447     2.425856
H      0.139251     6.854032     1.336072
H      0.213519     7.854481     2.812784
