32
Energy = -1142.565754586 Hartree (EUMP2 CORRECTED)
O      0.218782    -0.560039     0.846928
C      0.725543    -0.494713    -0.512945
H      0.038909    -1.070503    -1.148185
H      1.710073    -0.976422    -0.541305
C     -0.061606     0.785228     1.281954
H     -0.926044     0.745875     1.951004
H      0.798739     1.222840     1.806060
C      0.776067     0.981504    -0.905643
H      0.584119     1.147855    -1.968589
H      1.737166     1.433706    -0.646068
C     -0.309338     1.571777    -0.000012
H     -1.300840     1.318575    -0.403330
O     -0.344656     2.971343     0.267529
P      0.892302     4.016962    -0.116601
O      2.215689     3.502506     0.414128
O      0.380607     5.410907     0.150624
O      0.855335     3.718150    -1.775379
C      1.954596     4.202659    -2.544270
H      2.500402     3.342193    -2.956190
H      2.652590     4.787639    -1.928373
C      1.419666     5.061756    -3.676144
H      2.265233     5.410797    -4.287175
O      0.596767     4.265382    -4.564782
C     -0.774350     4.541896    -4.228227
H     -1.377566     4.240166    -5.090944
H     -1.065060     3.965848    -3.341781
C     -0.787595     6.037724    -3.941792
H     -1.658625     6.352169    -3.356304
H     -0.780854     6.592102    -4.888724
C      0.531713     6.222570    -3.177586
H      0.368376     6.137716    -2.097899
H      0.996189     7.194332    -3.380595
