32
Energy = -1142.564236250 Hartree (EUMP2 CORRECTED)
O      1.624389     0.313042     0.706235
C      2.093558     1.421636    -0.086060
H      3.028873     1.102290    -0.557223
H      2.279392     2.294455     0.553477
C      0.177942     0.405976     0.790091
H     -0.229489    -0.560562     0.465921
H     -0.123835     0.616193     1.821001
C      0.954124     1.698449    -1.054342
H      0.931032     0.928454    -1.837037
H      0.979436     2.692603    -1.509488
C     -0.254303     1.554810    -0.130311
H     -1.181110     1.318195    -0.658125
O     -0.365457     2.761552     0.616541
P     -1.829268     3.467701     1.075932
O     -1.974064     4.769165     0.321633
O     -1.954889     3.320213     2.569518
O     -2.905210     2.353378     0.403561
C     -3.438842     2.636309    -0.887653
H     -2.640604     2.751880    -1.633954
H     -4.015816     3.571632    -0.869998
C     -4.323544     1.464454    -1.264680
H     -4.769580     1.654251    -2.251232
O     -3.524019     0.263305    -1.416026
C     -3.711858    -0.526391    -0.229328
H     -3.422798    -1.551636    -0.481464
H     -3.079949    -0.142776     0.581221
C     -5.188923    -0.349023     0.097169
H     -5.433905    -0.618155     1.130648
H     -5.792175    -0.966442    -0.579537
C     -5.388725     1.144768    -0.193133
H     -5.187738     1.735805     0.705186
H     -6.400214     1.374297    -0.546194
