32
Energy = -1142.567731828 Hartree (EUMP2 CORRECTED)
O      1.669699    -0.589388    -0.627406
C      2.449618     0.410724    -1.323851
H      2.585013     0.044010    -2.346166
H      3.436062     0.495595    -0.846484
C      0.904932     0.134520     0.356674
H      0.122138    -0.527866     0.728914
H      1.541428     0.451914     1.190986
C      1.659899     1.727178    -1.231538
H      2.183251     2.479623    -0.633838
H      1.421923     2.152708    -2.212290
C      0.392377     1.328658    -0.454485
H     -0.378758     0.959256    -1.142144
O     -0.204878     2.420535     0.235888
P      0.294886     2.786267     1.804549
O      1.733216     3.269450     1.726858
O     -0.154903     1.708888     2.757708
O     -0.729302     4.074399     2.008537
C     -0.419022     5.303293     1.343114
H     -1.269187     5.561402     0.698574
H      0.486067     5.193976     0.731519
C     -0.198922     6.403970     2.366747
H      0.103818     7.315614     1.832190
O     -1.411480     6.750416     3.063720
C     -1.540087     5.846636     4.185395
H     -2.043005     6.414141     4.976583
H     -2.158850     4.992195     3.893979
C     -0.116406     5.393361     4.560437
H     -0.047048     4.303253     4.545019
H      0.167126     5.744792     5.559518
C      0.783795     6.012955     3.472904
H      1.541913     5.310795     3.111948
H      1.276005     6.918237     3.848531
