32
Energy = -1142.569852330 Hartree (EUMP2 CORRECTED)
O      1.273563     0.561392    -1.317100
C      1.272662     1.966263    -1.632543
H      1.820226     2.087330    -2.573004
H      1.771458     2.530761    -0.834225
C      0.063770     0.270789    -0.568572
H     -0.501959    -0.488022    -1.126685
H      0.317547    -0.125520     0.411536
C     -0.202645     2.331333    -1.708233
H     -0.642672     1.940218    -2.635326
H     -0.405282     3.402958    -1.623451
C     -0.741601     1.572966    -0.498558
H     -1.818703     1.365814    -0.550111
O     -0.485771     2.410073     0.630285
P     -0.369449     1.807076     2.185080
O     -1.098528     0.480704     2.275815
O     -0.617626     2.979316     3.097705
O      1.287216     1.505986     2.190870
C      1.798624     0.234640     2.593622
H      2.500907    -0.101336     1.818722
H      0.979288    -0.491690     2.685661
C      2.535762     0.339503     3.918326
H      2.837134    -0.673841     4.220405
O      3.762219     1.086253     3.803899
C      3.428148     2.484440     3.963995
H      4.309541     2.956794     4.412307
H      3.233665     2.925393     2.981003
C      2.172037     2.543848     4.851467
H      1.374899     3.113679     4.367687
H      2.392211     2.995078     5.826353
C      1.744431     1.070694     5.006170
H      0.663055     0.945831     4.890674
H      2.038282     0.677397     5.986957
