32
Energy = -1142.568261259 Hartree (EUMP2 CORRECTED)
O      1.101488     0.334776    -1.157851
C      1.213197     1.695970    -1.624570
H      1.737378     1.669835    -2.585883
H      1.786735     2.285519    -0.898221
C     -0.151892     0.204209    -0.437589
H     -0.799274    -0.486612    -0.998308
H      0.027229    -0.193707     0.560047
C     -0.224126     2.191164    -1.705798
H     -0.727388     1.768920    -2.586328
H     -0.318756     3.280845    -1.710599
C     -0.794201     1.592018    -0.421395
H     -1.890290     1.513784    -0.419328
O     -0.399233     2.475858     0.626594
P      0.091208     2.037408     2.165826
O     -0.459932     0.673470     2.533362
O     -0.081725     3.274914     3.005789
O      1.736553     1.896136     1.855062
C      2.421469     0.653024     2.021700
H      1.704586    -0.150888     2.236053
H      2.948837     0.429955     1.085709
C      3.416082     0.753906     3.164947
H      3.872676    -0.235443     3.311845
O      4.510058     1.641878     2.863585
C      4.089389     2.980410     3.215748
H      4.996645     3.510410     3.527766
H      3.661196     3.469493     2.334961
C      3.037341     2.841660     4.331160
H      2.108139     3.345133     4.052909
H      3.399544     3.261330     5.277397
C      2.806985     1.321817     4.449944
H      1.745772     1.070918     4.548623
H      3.344601     0.910552     5.313084
