32
Energy = -1142.567741137 Hartree (EUMP2 CORRECTED)
O      1.097300    -0.361860     0.107474
C      0.347374    -0.157983    -1.112000
H      0.210796    -1.143767    -1.567947
H      0.910370     0.490162    -1.795548
C      0.703851     0.665520     1.048903
H      0.348626     0.164600     1.959243
H      1.564224     1.299890     1.285544
C     -0.936566     0.520762    -0.668641
H     -1.610960    -0.208718    -0.199643
H     -1.454865     1.053548    -1.470560
C     -0.397011     1.490197     0.386657
H     -1.160673     1.831418     1.096953
O      0.229121     2.621453    -0.222438
P     -0.817684     3.793447    -0.856320
O     -1.838301     4.144564     0.195817
O     -1.184989     3.371321    -2.267623
O      0.308861     5.011135    -0.927295
C      1.289299     4.951487    -1.969714
H      2.176707     5.456419    -1.573816
H      1.547902     3.912526    -2.206843
C      0.835079     5.705523    -3.218417
H      0.062171     6.427842    -2.917067
O      1.992044     6.439722    -3.728338
C      1.927622     6.502171    -5.165459
H      2.010385     7.551517    -5.475068
H      2.786067     5.950547    -5.574096
C      0.602770     5.850904    -5.566091
H      0.654081     5.366006    -6.547898
H     -0.200155     6.597633    -5.598362
C      0.372730     4.880964    -4.409643
H      1.018292     3.998359    -4.510953
H     -0.652859     4.529690    -4.281519
