32
Energy = -1142.543278383 Hartree (EUMP2 CORRECTED)
O      2.243819     0.606870     0.273757
C      2.166039     1.771369    -0.571914
H      3.031372     1.735546    -1.240038
H      2.196645     2.688660     0.030453
C      0.909213     0.364186     0.771321
H      0.728891    -0.714516     0.695041
H      0.825337     0.685474     1.815333
C      0.819054     1.635347    -1.262416
H      0.871016     0.855995    -2.035373
H      0.458172     2.574589    -1.692166
C     -0.063465     1.190846    -0.087431
H     -0.928449     0.588763    -0.383910
O     -0.457943     2.307949     0.685590
P     -1.653997     3.453597     0.341972
O     -0.939257     4.635056    -0.280255
O     -2.537249     3.538013     1.555671
O     -2.603119     2.817548    -0.898102
C     -2.561035     1.787203    -1.855373
H     -2.901054     0.833440    -1.425138
H     -1.556975     1.651448    -2.284595
C     -3.495560     2.184512    -2.989968
H     -3.419033     1.430468    -3.786884
O     -4.872359     2.164985    -2.562947
C     -5.212479     3.515767    -2.189654
H     -6.305285     3.576351    -2.200424
H     -4.828974     3.733058    -1.187681
C     -4.529322     4.371503    -3.251430
H     -4.366479     5.402579    -2.920258
H     -5.141199     4.387286    -4.161601
C     -3.209231     3.618234    -3.491628
H     -2.401794     4.063420    -2.902255
H     -2.921130     3.623052    -4.548979
