32
Energy = -1142.565274680 Hartree (EUMP2 CORRECTED)
O      1.462690     0.023640     0.636389
C      1.796941     0.937646    -0.431811
H      2.623094     0.484033    -0.987957
H      2.111627     1.904722    -0.020063
C      0.066036     0.220671     0.960260
H     -0.421349    -0.762273     0.924193
H     -0.029421     0.647534     1.963834
C      0.505674     1.088067    -1.217402
H      0.319415     0.187816    -1.819882
H      0.471235     1.972478    -1.857760
C     -0.512085     1.186432    -0.078188
H     -1.527394     0.905867    -0.384588
O     -0.499151     2.484800     0.502384
P     -1.252383     3.801423    -0.237726
O     -0.161904     4.723413    -0.728159
O     -2.416290     4.232622     0.620313
O     -1.843795     3.007765    -1.604278
C     -3.241779     2.964340    -1.879876
H     -3.790559     3.626955    -1.202045
H     -3.601062     1.930111    -1.734285
C     -3.475577     3.362677    -3.328546
H     -4.507416     3.095080    -3.597584
O     -3.375612     4.777565    -3.538448
C     -1.976628     5.095620    -3.743153
H     -1.960899     5.946606    -4.432733
H     -1.513064     5.378491    -2.794091
C     -1.320065     3.826346    -4.320454
H     -0.483211     3.527269    -3.686283
H     -0.950650     3.986710    -5.340337
C     -2.439801     2.767791    -4.290069
H     -2.078815     1.789549    -3.954616
H     -2.894043     2.652045    -5.281627
