32
Energy = -1142.565263332 Hartree (EUMP2 CORRECTED)
O      1.216563     0.345103     0.550050
C      1.836645     1.546365     0.031704
H      2.898239     1.319353    -0.108528
H      1.725044     2.367047     0.751377
C     -0.154391     0.317288     0.085947
H     -0.302630    -0.622705    -0.462468
H     -0.835025     0.358783     0.942457
C      1.078703     1.850739    -1.247753
H      1.380873     1.153526    -2.041740
H      1.189498     2.880903    -1.595288
C     -0.353389     1.533768    -0.814799
H     -1.024300     1.342548    -1.659434
O     -0.904348     2.573960     0.008913
P     -1.414441     3.967238    -0.747382
O     -2.309443     4.723076     0.201138
O     -1.791310     3.654689    -2.184577
O      0.099907     4.716141    -0.781465
C      0.066209     6.104150    -1.061996
H     -0.830996     6.355529    -1.645663
H      0.019471     6.690370    -0.131845
C      1.324880     6.490820    -1.851825
H      2.174582     6.646571    -1.178714
O      1.737773     5.470723    -2.767280
C      0.753927     5.491439    -3.820629
H      1.234991     5.058968    -4.702866
H     -0.105676     4.874173    -3.531276
C      0.371371     6.980476    -3.994797
H     -0.716249     7.104504    -3.993226
H      0.750143     7.391634    -4.936707
C      1.027570     7.674490    -2.778827
H      0.378806     8.427897    -2.315173
H      1.965775     8.161533    -3.066804
