32
Energy = -1142.568315176 Hartree (EUMP2 CORRECTED)
O      1.382817    -0.192183     0.173976
C      1.829817     0.623194    -0.930425
H      2.351833    -0.043112    -1.624297
H      2.519981     1.398938    -0.573112
C      0.211210     0.443934     0.741117
H     -0.576756    -0.317095     0.800395
H      0.439625     0.822567     1.742713
C      0.558156     1.247402    -1.478631
H     -0.014332     0.498955    -2.043420
H      0.713821     2.139779    -2.089490
C     -0.173207     1.601402    -0.182627
H     -1.256832     1.710282    -0.301849
O      0.369321     2.804354     0.379211
P     -0.387984     4.243988     0.017717
O      0.223137     5.301008     0.904757
O     -1.881944     4.028266    -0.112784
O      0.248086     4.394082    -1.543188
C     -0.154365     5.553644    -2.276517
H     -1.243742     5.685449    -2.214243
H      0.117014     5.356598    -3.318990
C      0.584024     6.816045    -1.831342
H      1.512477     6.515131    -1.327288
O      0.911942     7.569792    -3.041137
C      0.897826     8.978570    -2.743575
H      1.869906     9.407908    -3.017788
H      0.122593     9.451268    -3.362765
C      0.580480     9.105044    -1.250844
H      0.014677    10.014895    -1.019011
H      1.503227     9.119336    -0.658548
C     -0.188015     7.813477    -0.982394
H     -1.217592     7.891137    -1.358184
H     -0.214629     7.499093     0.063653
