32
Energy = -1142.569477036 Hartree (EUMP2 CORRECTED)
O      0.716949    -0.279948     0.160403
C      1.676454     0.793608     0.285550
H      2.665042     0.327771     0.346076
H      1.481023     1.366114     1.201857
C     -0.424640     0.230815    -0.570047
H     -0.597017    -0.437514    -1.423549
H     -1.306303     0.242166     0.078476
C      1.450216     1.651746    -0.946503
H      1.870902     1.157720    -1.833231
H      1.825329     2.675733    -0.884251
C     -0.076168     1.650792    -1.018027
H     -0.461115     1.878610    -2.019572
O     -0.620303     2.548837    -0.045176
P     -0.836633     4.135395    -0.538163
O     -2.265528     4.378361    -0.965897
O      0.333941     4.531509    -1.423277
O     -0.596991     4.734180     1.002991
C     -0.996225     6.086349     1.238623
H     -1.782422     6.081984     2.004326
H     -1.403578     6.549761     0.328878
C      0.196563     6.883919     1.737547
H     -0.131203     7.915463     1.934059
O      0.650162     6.369918     3.013812
C      1.787971     5.532213     2.744842
H      2.328438     5.421485     3.690622
H      1.453174     4.553085     2.382539
C      2.551633     6.290688     1.666602
H      3.249651     5.654879     1.110273
H      3.115649     7.111755     2.126720
C      1.410979     6.822160     0.784900
H      1.211008     6.134868    -0.043753
H      1.637753     7.809649     0.366813
