32
Energy = -1142.563657143 Hartree (EUMP2 CORRECTED)
O      1.933513     0.287384    -0.777260
C      0.962596     0.383432    -1.845104
H      1.050426    -0.533449    -2.436478
H      1.183896     1.252245    -2.477362
C      1.410305     0.999116     0.369027
H      1.367243     0.294415     1.210351
H      2.074136     1.833296     0.619228
C     -0.371659     0.559211    -1.141393
H     -0.713562    -0.397145    -0.722932
H     -1.151141     0.988972    -1.776357
C      0.024147     1.510764    -0.010321
H     -0.684150     1.508365     0.826618
O      0.185416     2.846282    -0.498149
P     -1.250353     3.670240    -0.859292
O     -2.275769     3.349601     0.199166
O     -1.508206     3.478764    -2.341267
O     -0.690370     5.219406    -0.594554
C      0.672302     5.596361    -0.801811
H      1.330220     4.725843    -0.732275
H      0.915302     6.271852     0.027911
C      0.958225     6.321154    -2.144991
H      1.238759     7.361341    -1.943602
O      2.131270     5.735785    -2.759979
C      1.616081     4.620354    -3.515575
H      2.418449     4.295819    -4.184970
H      1.344252     3.798487    -2.839548
C      0.376253     5.170748    -4.214358
H     -0.368190     4.389942    -4.389860
H      0.657900     5.640237    -5.164735
C     -0.149506     6.220572    -3.211093
H     -1.096184     5.904843    -2.771419
H     -0.288374     7.195461    -3.692735
