32
Energy = -1142.571610678 Hartree (EUMP2 CORRECTED)
O      1.337677    -0.146747     1.183269
C      2.167364     0.826680     0.523994
H      3.158054     0.375122     0.408554
H      2.244838     1.737995     1.132244
C     -0.039274     0.110292     0.797637
H     -0.459953    -0.837143     0.439517
H     -0.608376     0.465010     1.662196
C      1.439459     1.111786    -0.780531
H      1.571856     0.270847    -1.473906
H      1.735411     2.044244    -1.269868
C     -0.007351     1.181953    -0.299112
H     -0.752563     0.994287    -1.078413
O     -0.197253     2.483015     0.258625
P     -1.777053     3.066883     0.389871
O     -1.961988     3.514844     1.822294
O     -2.701929     2.127552    -0.344771
O     -1.620142     4.428813    -0.565700
C     -0.831721     5.513499    -0.070641
H      0.038229     5.634251    -0.729779
H     -0.490658     5.312019     0.953750
C     -1.661884     6.785678    -0.077904
H     -1.037607     7.611184     0.293442
O     -2.033484     7.156631    -1.426237
C     -3.357254     6.635395    -1.649504
H     -3.771059     7.186031    -2.500764
H     -3.303854     5.565828    -1.878991
C     -4.082078     6.886279    -0.331189
H     -4.945777     6.226395    -0.194811
H     -4.428627     7.926379    -0.294523
C     -2.980158     6.636935     0.713431
H     -3.045506     5.633380     1.143347
H     -3.029361     7.359543     1.535803
