32
Energy = -1142.569366821 Hartree (EUMP2 CORRECTED)
O      0.843570    -0.375277     0.254763
C      1.839302     0.541198    -0.245007
H      2.648199    -0.066912    -0.661719
H      2.227642     1.162877     0.572840
C     -0.430746     0.313398     0.232855
H     -1.147458    -0.346044    -0.271532
H     -0.765587     0.515296     1.255537
C      1.092702     1.393334    -1.257251
H      0.917169     0.818035    -2.176586
H      1.576133     2.344017    -1.494734
C     -0.226804     1.631824    -0.519153
H     -1.068467     1.872443    -1.178761
O     -0.065464     2.670960     0.453752
P     -0.533341     4.214198     0.014857
O     -0.354803     5.075925     1.235572
O     -1.811257     4.144043    -0.798664
O      0.729301     4.535078    -1.068390
C      0.434334     5.131685    -2.329833
H     -0.648361     5.136917    -2.499912
H      0.904657     4.524568    -3.115699
C      0.967226     6.566397    -2.401134
H      2.037403     6.557534    -2.640222
O      0.327376     7.244780    -3.515653
C     -0.743104     8.014761    -2.944815
H     -1.043730     8.749160    -3.698218
H     -1.600009     7.366725    -2.706605
C     -0.134441     8.599985    -1.678864
H     -0.886054     8.952566    -0.963854
H      0.516607     9.441318    -1.945927
C      0.677722     7.409537    -1.142115
H      0.112852     6.836457    -0.402376
H      1.603751     7.725135    -0.651279
