32
Energy = -1142.561203694 Hartree (EUMP2 CORRECTED)
O      1.306643     0.086297     0.374867
C      1.734292     1.359481     0.907890
H      2.736945     1.207493     1.320367
H      1.052155     1.680770     1.706707
C      0.356293     0.356302    -0.685044
H      0.685250    -0.205864    -1.568275
H     -0.643250     0.025238    -0.384316
C      1.666491     2.309657    -0.274677
H      2.509021     2.134058    -0.956360
H      1.622061     3.369943    -0.019361
C      0.359557     1.867535    -0.930022
H      0.293393     2.120065    -1.991749
O     -0.757122     2.426689    -0.226729
P     -1.478835     3.797047    -0.839797
O     -2.657343     4.098782     0.046063
O     -1.572434     3.703446    -2.354662
O     -0.220761     4.879553    -0.499246
C     -0.106884     5.974508    -1.394598
H     -1.069758     6.173175    -1.880144
H      0.150780     6.853127    -0.786706
C      0.990317     5.788488    -2.478244
H      1.875168     6.376034    -2.189455
O      1.455922     4.429943    -2.591785
C      1.130492     3.932610    -3.902011
H      1.873400     3.163947    -4.141849
H      0.120883     3.503500    -3.883035
C      1.192681     5.164594    -4.793536
H      0.675834     5.029499    -5.750910
H      2.236305     5.441101    -4.991211
C      0.510983     6.189916    -3.885834
H     -0.575743     6.065326    -3.948752
H      0.758506     7.229660    -4.131084
