32
Energy = -1142.560476240 Hartree (EUMP2 CORRECTED)
O      1.323091     0.183244     0.292562
C      1.909719     1.356773    -0.314613
H      2.885190     1.055391    -0.709040
H      2.043611     2.143648     0.439138
C     -0.116639     0.314658     0.203855
H     -0.500355    -0.591825    -0.282009
H     -0.543906     0.407787     1.207670
C      0.903623     1.788409    -1.366558
H      0.951403     1.111720    -2.231240
H      1.016810     2.825062    -1.694199
C     -0.412526     1.571135    -0.614983
H     -1.278070     1.458257    -1.277437
O     -0.659563     2.635786     0.313358
P     -1.420762     4.010635    -0.263782
O     -1.782572     4.857530     0.930576
O     -2.380149     3.606170    -1.361855
O     -0.073154     4.704195    -1.016307
C      0.147422     6.086679    -0.810987
H     -0.676107     6.662655    -1.263124
H      0.159445     6.332832     0.258740
C      1.489297     6.484263    -1.463831
H      2.294388     6.500149    -0.722512
O      1.922517     5.561801    -2.474070
C      1.046723     5.782135    -3.592665
H      1.592061     5.463381    -4.485981
H      0.147421     5.167432    -3.470099
C      0.714920     7.292985    -3.576415
H     -0.367768     7.452835    -3.585097
H      1.134185     7.816446    -4.442288
C      1.346750     7.785885    -2.257785
H      0.735612     8.538801    -1.745722
H      2.339419     8.213225    -2.438749
