32
Energy = -1142.556877996 Hartree (EUMP2 CORRECTED)
O      0.881338    -0.521087     0.119821
C      1.840681     0.542900    -0.030714
H      2.793869     0.075067    -0.295705
H      1.948860     1.096712     0.911935
C     -0.431349     0.056733    -0.086997
H     -0.973342    -0.613487    -0.764210
H     -0.964040     0.135380     0.866551
C      1.240963     1.433060    -1.106612
H      1.353677     0.958731    -2.091406
H      1.646871     2.447438    -1.129156
C     -0.230033     1.458549    -0.678359
H     -0.931672     1.660176    -1.496835
O     -0.406696     2.416928     0.364274
P     -1.074510     3.906709    -0.057831
O     -1.101329     4.703809     1.212562
O     -2.251602     3.654973    -0.979093
O      0.184365     4.512673    -1.013369
C      0.048039     4.538560    -2.426465
H      0.476500     3.619943    -2.862419
H     -1.014665     4.565386    -2.690850
C      0.784069     5.776800    -3.010704
H      0.106924     6.315383    -3.684323
O      1.189020     6.733224    -2.033210
C      2.433389     6.270654    -1.465026
H      3.076398     7.152845    -1.363907
H      2.232797     5.837867    -0.481162
C      3.001397     5.230964    -2.453991
H      2.893352     4.222269    -2.042550
H      4.062474     5.395064    -2.673531
C      2.099288     5.396062    -3.687859
H      2.030879     4.490240    -4.300409
H      2.445459     6.224427    -4.318041
