32
Energy = -1142.561897118 Hartree (EUMP2 CORRECTED)
O      1.468865    -0.053042    -0.044119
C      1.934552     1.061908    -0.826900
H      2.769061     0.695540    -1.433590
H      2.292209     1.863898    -0.166091
C      0.085463     0.212133     0.300122
H     -0.473125    -0.710067     0.103002
H      0.005979     0.476672     1.360254
C      0.712766     1.501216    -1.616978
H      0.525212     0.790124    -2.432437
H      0.760064     2.513315    -2.028701
C     -0.391430     1.387424    -0.561507
H     -1.375205     1.219738    -1.010957
O     -0.446374     2.544554     0.281507
P     -1.308653     3.883886    -0.309968
O     -1.752927     4.630745     0.921027
O     -2.195361     3.425429    -1.440490
O     -0.047613     4.742118    -1.030487
C      1.165607     4.876179    -0.298073
H      1.060502     5.629424     0.497787
H      1.420301     3.916639     0.169015
C      2.276984     5.293577    -1.248664
H      2.016015     4.940996    -2.253568
O      2.403327     6.738669    -1.357234
C      3.650412     7.123514    -0.773968
H      3.938633     8.078958    -1.222810
H      3.545211     7.260496     0.315245
C      4.588154     5.963324    -1.082414
H      5.495132     5.959579    -0.466742
H      4.880144     5.996636    -2.138589
C      3.660280     4.778886    -0.807682
H      3.652925     4.552425     0.267121
H      3.940401     3.862449    -1.336931
