32
Energy = -1142.572181909 Hartree (EUMP2 CORRECTED)
O      0.811536    -0.274282     0.473093
C      1.819403     0.534066    -0.169038
H      2.558651    -0.155788    -0.587856
H      2.302417     1.192520     0.565272
C     -0.419409     0.489719     0.479217
H     -1.207178    -0.160869     0.080185
H     -0.667867     0.792084     1.501746
C      1.051126     1.348977    -1.195589
H      0.775484     0.714564    -2.049170
H      1.569883     2.244600    -1.545770
C     -0.194410     1.729365    -0.391413
H     -1.066879     1.970587    -1.009456
O      0.097905     2.829157     0.478125
P     -0.319594     4.360825    -0.048740
O     -0.005834     5.304156     1.079754
O     -1.658430     4.295647    -0.759950
O      0.867236     4.521934    -1.245722
C      0.493475     5.038686    -2.523501
H     -0.525963     4.733676    -2.788017
H      1.201229     4.624175    -3.252254
C      0.608044     6.554353    -2.529169
H      1.599727     6.836685    -2.147265
O      0.519034     7.006668    -3.915581
C     -0.459338     8.057116    -4.009944
H     -0.085202     8.794396    -4.729366
H     -1.407667     7.645034    -4.386848
C     -0.623994     8.586242    -2.591534
H     -1.577378     9.105097    -2.438830
H      0.190649     9.280488    -2.349057
C     -0.498271     7.295919    -1.782348
H     -1.427647     6.715691    -1.820424
H     -0.250051     7.442102    -0.727481
