32
Energy = -1142.566092498 Hartree (EUMP2 CORRECTED)
O      1.893723     0.745122    -0.920335
C      1.721030     1.949272    -1.706403
H      2.226527     1.776134    -2.662371
H      2.175762     2.807434    -1.197750
C      0.746820     0.620027    -0.045312
H      0.294255    -0.363739    -0.228709
H      1.067425     0.692938     0.998979
C      0.217089     2.129051    -1.807697
H     -0.206489     1.411353    -2.524634
H     -0.087977     3.146585    -2.060413
C     -0.212824     1.759457    -0.385827
H     -1.267214     1.471295    -0.300734
O      0.065575     2.834010     0.517955
P     -1.110075     4.002396     0.756945
O     -0.584434     4.935200     1.821913
O     -2.456152     3.317045     0.783461
O     -0.988362     4.795100    -0.734321
C     -0.644243     6.169635    -0.717112
H     -1.069020     6.598477    -1.636989
H     -1.069280     6.691168     0.150420
C      0.867190     6.367449    -0.725439
H      1.281413     6.012776     0.221860
O      1.472771     5.542101    -1.761041
C      1.727639     6.379289    -2.885363
H      2.463282     5.866768    -3.512881
H      0.809313     6.539925    -3.475748
C      2.215356     7.682158    -2.266891
H      2.182526     8.537044    -2.953021
H      3.246470     7.552273    -1.919669
C      1.256383     7.821812    -1.078619
H      0.363440     8.389897    -1.373477
H      1.707543     8.343170    -0.228028
