32
Energy = -1142.567183415 Hartree (EUMP2 CORRECTED)
O      0.968334     0.354891    -1.439750
C      1.634003     1.619476    -1.643121
H      2.145483     1.550715    -2.608670
H      2.356473     1.817421    -0.843871
C     -0.049719     0.586477    -0.442674
H     -0.903090    -0.043242    -0.719755
H      0.313341     0.294695     0.542725
C      0.504206     2.636858    -1.598181
H      0.840809     3.649348    -1.363332
H     -0.037243     2.629727    -2.553664
C     -0.410585     2.092361    -0.482349
H     -1.465587     2.225943    -0.745994
O     -0.304061     2.804051     0.758760
P      1.076188     3.003779     1.700687
O      0.590321     3.673250     2.960185
O      2.209488     3.489848     0.829484
O      1.475256     1.410534     2.059024
C      0.761578     0.772288     3.116740
H     -0.283050     0.589807     2.824003
H      0.762167     1.408837     4.012379
C      1.453376    -0.548985     3.392054
H      0.947803    -1.045507     4.232474
O      1.310804    -1.443048     2.261970
C      2.547929    -1.403194     1.526312
H      2.576934    -2.307060     0.910301
H      2.576295    -0.516190     0.883337
C      3.613179    -1.343865     2.614129
H      4.579837    -0.982863     2.245273
H      3.753793    -2.342102     3.046708
C      2.971271    -0.389341     3.631831
H      3.264835     0.643583     3.424321
H      3.245500    -0.630790     4.664875
