32
Energy = -1142.572898726 Hartree (EUMP2 CORRECTED)
O      0.571511    -0.205773     0.749192
C      1.790511     0.539195     0.910099
H      2.589886    -0.188112     1.086804
H      1.713939     1.219135     1.769522
C     -0.327865     0.585788    -0.077938
H     -0.671471    -0.063283    -0.893373
H     -1.183353     0.932076     0.507079
C      1.921077     1.324699    -0.385587
H      2.232319     0.657347    -1.199757
H      2.599782     2.180934    -0.329541
C      0.480692     1.781939    -0.597688
H      0.252573     2.020074    -1.642459
O      0.290986     2.939161     0.224743
P     -1.041825     3.928230    -0.081610
O     -0.704046     5.271262     0.511653
O     -2.307417     3.143813     0.163895
O     -0.920868     4.008682    -1.760419
C      0.105145     4.840419    -2.296731
H      1.095409     4.495094    -1.965370
H     -0.027661     5.879574    -1.961840
C      0.009564     4.744685    -3.806782
H      0.779035     5.387264    -4.257246
O      0.312557     3.397221    -4.247141
C     -0.941020     2.748612    -4.522220
H     -0.720038     1.894918    -5.170748
H     -1.400199     2.406451    -3.586771
C     -1.778290     3.838317    -5.179794
H     -2.852076     3.620818    -5.163500
H     -1.461554     3.966625    -6.222016
C     -1.406189     5.065775    -4.336155
H     -2.093826     5.170024    -3.492019
H     -1.420568     5.994769    -4.916872
