32
Energy = -1142.573793756 Hartree (EUMP2 CORRECTED)
O      0.394730     0.939392     1.857599
C      1.503319     1.654598     1.260367
H      2.409232     1.068556     1.451291
H      1.601657     2.632613     1.743575
C     -0.737682     0.999421     0.959579
H     -0.936980    -0.014656     0.583956
H     -1.609955     1.368798     1.507150
C      1.160446     1.799094    -0.214361
H      1.422599     0.882883    -0.761469
H      1.620482     2.663398    -0.701163
C     -0.361907     1.946165    -0.172143
H     -0.846668     1.669342    -1.118414
O     -0.770322     3.261247     0.213012
P     -0.785189     4.410786    -1.040245
O     -1.878455     4.027119    -2.003383
O      0.652449     4.663340    -1.460095
O     -1.301238     5.673306    -0.095418
C     -0.419370     6.715034     0.326274
H     -0.958580     7.656610     0.162868
H      0.496768     6.706366    -0.279104
C     -0.066146     6.598776     1.801253
H      0.501150     7.499369     2.080013
O     -1.251675     6.613098     2.624478
C     -1.575889     5.233825     2.897521
H     -2.244690     5.237401     3.764600
H     -2.075714     4.788163     2.031572
C     -0.224991     4.574150     3.151936
H     -0.251178     3.492796     2.984423
H      0.092325     4.767460     4.184525
C      0.692481     5.301018     2.153568
H      0.845467     4.702390     1.254543
H      1.674311     5.525891     2.587003
