32
Energy = -1142.567598296 Hartree (EUMP2 CORRECTED)
O      0.764071     0.295259     1.124826
C      1.502085     0.692059    -0.055304
H      2.082795    -0.179013    -0.375225
H      2.183949     1.515332     0.193624
C     -0.494694     1.009652     1.131141
H     -1.304851     0.267843     1.120549
H     -0.565062     1.621301     2.036320
C      0.446265     1.148460    -1.046972
H     -0.054456     0.280675    -1.498022
H      0.811926     1.820956    -1.827593
C     -0.517220     1.886230    -0.116970
H     -1.528557     2.003212    -0.528219
O      0.016633     3.161912     0.245873
P     -0.323916     4.429506    -0.833439
O     -1.803146     4.732975    -0.754544
O      0.382150     4.136781    -2.138868
O      0.478606     5.615704     0.010301
C      1.418512     5.408218     1.060265
H      2.321901     5.979901     0.810341
H      1.675764     4.347242     1.162158
C      0.847535     5.931863     2.369635
H      1.598016     5.780624     3.160001
O      0.642136     7.362303     2.290272
C     -0.760503     7.567963     2.033032
H     -0.979397     8.606684     2.300943
H     -0.978672     7.391534     0.973781
C     -1.444716     6.531167     2.913532
H     -2.473475     6.322145     2.601300
H     -1.450581     6.877437     3.954837
C     -0.522228     5.316775     2.734870
H     -0.882111     4.684418     1.921066
H     -0.454840     4.703343     3.640988
