32
Energy = -1142.569880627 Hartree (EUMP2 CORRECTED)
O      0.806507    -0.529218     0.578021
C      1.707077     0.343068    -0.134105
H      2.520391    -0.283084    -0.513869
H      2.112967     1.106334     0.543465
C     -0.501585     0.093993     0.562737
H     -1.219646    -0.669354     0.239917
H     -0.760623     0.449409     1.565288
C      0.839362     0.984458    -1.203735
H      0.632596     0.258872    -2.002745
H      1.245065     1.905229    -1.629748
C     -0.433641     1.280017    -0.406429
H     -1.338439     1.354794    -1.022281
O     -0.263771     2.473614     0.361415
P     -0.927897     3.880749    -0.274468
O     -0.424502     5.004559     0.587826
O     -2.376768     3.618302    -0.625513
O     -0.056181     3.919370    -1.722529
C     -0.715183     3.881015    -2.983892
H     -1.795219     4.010501    -2.857925
H     -0.526947     2.901098    -3.459743
C     -0.142756     4.976978    -3.868952
H     -0.546475     4.851704    -4.884132
O     -0.576760     6.278890    -3.433225
C      0.452221     6.797160    -2.565324
H      0.295379     7.878961    -2.511629
H      0.367061     6.356660    -1.566921
C      1.747996     6.393655    -3.264438
H      2.601909     6.360689    -2.578895
H      1.973340     7.106873    -4.066502
C      1.404856     5.011399    -3.849761
H      1.787222     4.213496    -3.207298
H      1.821526     4.877249    -4.854689
