32
Energy = -1142.575090940 Hartree (EUMP2 CORRECTED)
O      0.822295    -0.326320    -1.036901
C      1.765738     0.755949    -1.208515
H      2.530813     0.399167    -1.904993
H      2.228912     1.008761    -0.246526
C     -0.464840     0.256908    -0.726020
H     -1.191848    -0.144124    -1.444174
H     -0.760484    -0.015207     0.292849
C      0.928944     1.915172    -1.720287
H      0.669749     1.759214    -2.776347
H      1.396517     2.894660    -1.586772
C     -0.318977     1.773335    -0.844997
H     -1.208856     2.255923    -1.268423
O     -0.078211     2.281532     0.471670
P     -0.126324     3.962115     0.625699
O     -1.427373     4.439718     0.007673
O      1.217671     4.547941     0.265044
O     -0.230734     3.989168     2.281314
C     -1.518000     3.972117     2.904457
H     -1.521472     3.156291     3.638890
H     -2.304477     3.803281     2.157662
C     -1.773080     5.291003     3.614697
H     -2.791128     5.264882     4.029042
O     -0.900090     5.476350     4.745641
C      0.321470     6.079784     4.258269
H      0.683185     6.726372     5.065877
H      1.057509     5.295374     4.056150
C     -0.036849     6.843281     2.969258
H      0.573580     6.490388     2.134791
H      0.120910     7.922251     3.084045
C     -1.525756     6.518624     2.735382
H     -1.751150     6.318833     1.683236
H     -2.160342     7.340366     3.089012
