32
Energy = -1142.568692485 Hartree (EUMP2 CORRECTED)
O      1.811367     1.026682     1.494593
C      1.974376     2.253490     0.751927
H      3.050974     2.426473     0.659311
H      1.508320     3.088836     1.289939
C      0.544743     0.443999     1.104003
H      0.738267    -0.597358     0.817119
H     -0.157184     0.475480     1.943378
C      1.254043     1.997240    -0.561282
H      1.853969     1.337715    -1.203321
H      0.998277     2.908067    -1.107643
C      0.001343     1.270317    -0.065115
H     -0.469102     0.649152    -0.834803
O     -0.932545     2.201006     0.473332
P     -2.000029     3.064631    -0.499741
O     -1.614502     4.526706    -0.449734
O     -3.390775     2.552510    -0.218850
O     -1.540930     2.450842    -2.003168
C     -1.045968     3.328121    -3.016040
H     -0.133757     2.876972    -3.431142
H     -0.810103     4.308300    -2.580667
C     -2.058951     3.492847    -4.136074
H     -1.659001     4.228769    -4.848379
O     -2.232979     2.279731    -4.893672
C     -3.244322     1.493079    -4.221942
H     -3.757723     0.925898    -5.006563
H     -2.760567     0.800433    -3.525350
C     -4.155677     2.480119    -3.471248
H     -4.218915     2.224920    -2.410522
H     -5.166891     2.491392    -3.894892
C     -3.465564     3.847673    -3.647608
H     -3.446753     4.424082    -2.717203
H     -3.969970     4.444127    -4.417373
