32
Energy = -1142.557856690 Hartree (EUMP2 CORRECTED)
O      0.672927    -0.763840     0.331222
C     -0.294811    -0.764949    -0.745349
H     -0.614414    -1.802940    -0.882506
H      0.169933    -0.395602    -1.667713
C      0.562496     0.498968     1.030058
H      0.331271     0.282155     2.081824
H      1.511962     1.040356     0.964062
C     -1.390110     0.180933    -0.285410
H     -2.021976    -0.302108     0.472445
H     -2.007984     0.566636    -1.100847
C     -0.555071     1.290403     0.358499
H     -1.124057     1.913605     1.059303
O      0.049729     2.116194    -0.639059
P     -0.990785     3.213715    -1.410577
O     -1.871092     3.866610    -0.373725
O     -1.537797     2.523276    -2.643142
O      0.190886     4.299916    -1.873420
C      1.505493     3.816901    -2.142394
H      2.029036     3.573263    -1.211232
H      1.449887     2.908943    -2.759071
C      2.265565     4.906048    -2.883631
H      1.549215     5.692387    -3.171246
O      3.277240     5.483882    -2.029944
C      4.073311     6.297049    -2.894680
H      3.614407     7.293318    -2.989858
H      5.054023     6.406828    -2.423040
C      4.110966     5.575061    -4.264450
H      5.108273     5.185578    -4.493596
H      3.830015     6.259002    -5.072917
C      3.076033     4.449076    -4.094700
H      3.566758     3.499485    -3.850597
H      2.447831     4.292019    -4.977785
