32
Energy = -1142.562122814 Hartree (EUMP2 CORRECTED)
O      1.864316     0.789787    -0.383537
C      2.144472     2.177527    -0.103629
H      3.175274     2.377402    -0.416823
H      2.043170     2.360708     0.973825
C      0.497343     0.682448    -0.860492
H      0.522807     0.448574    -1.936021
H     -0.006738    -0.107772    -0.308874
C      1.093512     2.957205    -0.881704
H      1.360131     3.008283    -1.945857
H      0.913971     3.964506    -0.495956
C     -0.128531     2.062178    -0.682451
H     -0.913026     2.223910    -1.437279
O     -0.647385     2.409724     0.597810
P     -1.601466     1.549516     1.664076
O     -2.982235     1.348242     1.076597
O     -1.360245     2.165898     3.021566
O     -0.803921     0.068919     1.591874
C     -1.378980    -0.971950     2.386816
H     -1.802259    -1.730150     1.715025
H     -2.184817    -0.586903     3.027702
C     -0.295710    -1.588833     3.252233
H     -0.746382    -2.393373     3.853014
O      0.708563    -2.228205     2.428983
C      1.850167    -1.347737     2.383756
H      2.709535    -1.965977     2.103141
H      1.698644    -0.565466     1.633199
C      1.924034    -0.775952     3.793729
H      2.514086     0.146137     3.847892
H      2.370445    -1.516487     4.469875
C      0.441503    -0.548804     4.122559
H      0.122275     0.461881     3.847659
H      0.223726    -0.694857     5.186874
