32
Energy = -1142.565083584 Hartree (EUMP2 CORRECTED)
O      0.394635     0.764974    -1.631437
C      0.934141     2.101701    -1.600682
H      1.272004     2.332274    -2.616625
H      1.777107     2.141309    -0.902477
C     -0.642337     0.676146    -0.630992
H     -1.564855     0.368757    -1.143757
H     -0.393296    -0.071491     0.123241
C     -0.224490     2.962340    -1.117021
H      0.076083     3.929804    -0.704961
H     -0.945512     3.114298    -1.932291
C     -0.836198     2.075094    -0.028359
H     -1.905865     2.276381     0.117129
O     -0.207864     2.373240     1.216901
P      0.754217     1.393597     2.171404
O     -0.069174     0.250393     2.732459
O      1.565167     2.342980     3.014004
O      1.742434     0.744858     0.976782
C      1.966383    -0.661977     0.877920
H      1.229933    -1.201395     1.489180
H      1.844919    -0.929089    -0.179787
C      3.369329    -1.032236     1.327759
H      3.451622    -2.128337     1.299602
O      4.380473    -0.549587     0.421210
C      4.703521     0.800798     0.821136
H      5.751827     0.957919     0.542847
H      4.069535     1.504037     0.270693
C      4.441414     0.893060     2.334664
H      3.771456     1.724036     2.568962
H      5.375832     1.020255     2.894284
C      3.762501    -0.445958     2.686665
H      2.899093    -0.305690     3.344680
H      4.468857    -1.125722     3.178518
