32
Energy = -1142.566129292 Hartree (EUMP2 CORRECTED)
O      1.410928     0.098868     0.372829
C      1.727432     1.499762     0.528625
H      2.817055     1.571713     0.599297
H      1.268284     1.892840     1.444573
C      0.155124     0.011425    -0.340803
H      0.308523    -0.661036    -1.194785
H     -0.622528    -0.391341     0.316018
C      1.124600     2.159916    -0.699646
H      1.739262     1.937834    -1.583223
H      0.982336     3.239542    -0.613872
C     -0.216557     1.429398    -0.786339
H     -0.659887     1.440164    -1.788605
O     -1.130124     1.945517     0.174551
P     -2.087791     3.294573    -0.093374
O     -1.901053     4.235104     1.069487
O     -3.449254     2.844239    -0.584365
O     -1.255593     3.874379    -1.452197
C     -1.960294     4.862966    -2.210900
H     -1.436584     5.821923    -2.105609
H     -2.990102     4.972472    -1.845131
C     -2.011538     4.470770    -3.676727
H     -2.608424     5.223962    -4.210386
O     -0.697954     4.525555    -4.285800
C     -0.182525     3.186130    -4.291703
H      0.616751     3.157090    -5.039696
H      0.224599     2.940162    -3.305179
C     -1.391754     2.321406    -4.634354
H     -1.270669     1.277471    -4.322469
H     -1.554013     2.337579    -5.718985
C     -2.537492     3.035770    -3.896384
H     -2.764514     2.574065    -2.930651
H     -3.459785     3.039683    -4.487725
