32
Energy = -1142.569864005 Hartree (EUMP2 CORRECTED)
O      2.345112     1.091177    -1.235530
C      1.748089     2.112916    -2.069148
H      2.099017     1.934912    -3.090852
H      2.076937     3.106332    -1.738949
C      1.410049     0.766899    -0.178080
H      1.163976    -0.300761    -0.260668
H      1.872673     0.967841     0.793266
C      0.250350     1.946671    -1.877990
H     -0.113168     1.079103    -2.445977
H     -0.330617     2.833411    -2.140908
C      0.179284     1.644769    -0.379658
H     -0.756309     1.158254    -0.081431
O      0.377240     2.826265     0.403387
P     -0.926354     3.874261     0.607605
O     -0.521632     4.822923     1.710641
O     -2.190782     3.053254     0.556313
O     -0.823966     4.717219    -0.851325
C     -0.298742     6.045472    -0.782087
H     -0.444658     6.482944    -1.775949
H     -0.857911     6.625849    -0.039513
C      1.189974     6.068542    -0.446721
H      1.506560     5.058579    -0.149076
O      1.948087     6.467949    -1.618252
C      3.276993     6.689105    -1.132578
H      3.834969     5.740480    -1.146799
H      3.760309     7.390403    -1.820055
C      3.136269     7.223861     0.315146
H      3.476719     8.261442     0.402995
H      3.732201     6.620216     1.008294
C      1.632443     7.076545     0.604413
H      1.108016     8.025552     0.432466
H      1.393560     6.720263     1.609948
