32
Energy = -1142.564881242 Hartree (EUMP2 CORRECTED)
O      1.178708    -0.486758     0.074961
C      0.257902    -0.579113    -1.038026
H      0.140525    -1.643742    -1.264651
H      0.672031    -0.058691    -1.910426
C      0.812469     0.670838     0.863908
H      0.593793     0.326781     1.883972
H      1.644802     1.381801     0.882881
C     -1.006883     0.110634    -0.557663
H     -1.560925    -0.540694     0.132164
H     -1.659917     0.444734    -1.368564
C     -0.411228     1.297782     0.204036
H     -1.104905     1.746102     0.926598
O      0.059529     2.299168    -0.697734
P     -1.134298     3.272037    -1.416701
O     -2.079440     3.750262    -0.344724
O     -1.589059     2.571228    -2.682728
O     -0.107508     4.520259    -1.815399
C      0.963518     4.180076    -2.686628
H      1.699060     3.562721    -2.149214
H      0.590315     3.604348    -3.547230
C      1.628588     5.445110    -3.185783
H      0.875584     6.098703    -3.638824
O      2.209313     6.211895    -2.101223
C      3.605678     5.919685    -2.074271
H      4.091332     6.713375    -1.499071
H      3.795529     4.954115    -1.577960
C      3.995634     5.866394    -3.545942
H      4.955651     5.369878    -3.728973
H      4.047901     6.886131    -3.943903
C      2.801412     5.109449    -4.139116
H      2.991889     4.028326    -4.129712
H      2.584871     5.394859    -5.173752
