32
Energy = -1142.553084744 Hartree (EUMP2 CORRECTED)
O      1.529806     0.662612     1.043036
C      1.872539     0.802718    -0.348001
H      2.496271    -0.057917    -0.608450
H      2.448512     1.725883    -0.504762
C      0.318339     1.426184     1.261731
H     -0.338547     0.807092     1.882780
H      0.550112     2.361258     1.784193
C      0.529904     0.858627    -1.058189
H      0.093314    -0.147727    -1.100021
H      0.549350     1.275834    -2.068615
C     -0.287611     1.742729    -0.112729
H     -1.357207     1.521499    -0.171200
O     -0.075367     3.137121    -0.365322
P     -1.029615     3.856218    -1.574565
O     -1.471291     5.183046    -1.004165
O     -1.970213     2.809710    -2.122438
O      0.141214     4.148975    -2.746930
C      1.533809     4.106611    -2.486328
H      1.762401     3.486101    -1.615465
H      1.978360     3.637324    -3.375442
C      2.167824     5.509715    -2.297611
H      3.100017     5.522741    -2.884502
O      1.382000     6.590086    -2.802781
C      0.859914     7.314223    -1.667303
H      0.610588     8.316731    -2.029284
H     -0.036904     6.809764    -1.288087
C      2.008856     7.278003    -0.664089
H      1.690089     7.514974     0.357513
H      2.791854     7.986706    -0.963373
C      2.486676     5.827947    -0.818568
H      1.900770     5.173718    -0.161797
H      3.548554     5.687441    -0.587155
