32
Energy = -1142.561559589 Hartree (EUMP2 CORRECTED)
O      1.550445     0.732474    -1.293634
C      2.136957     2.038011    -1.110894
H      2.920713     2.139337    -1.868513
H      2.556628     2.128431    -0.101355
C      0.227484     0.775075    -0.701414
H     -0.461055     0.326689    -1.428678
H      0.216883     0.198349     0.222470
C      0.954548     2.975682    -1.294393
H      1.111913     3.989241    -0.914579
H      0.672306     3.013825    -2.355821
C     -0.128326     2.260803    -0.475857
H     -1.135296     2.472926    -0.858215
O     -0.133425     2.782437     0.857401
P      0.489530     2.189112     2.300910
O     -0.288489     2.902868     3.377365
O      1.994603     2.123174     2.204459
O      0.005724     0.579127     2.251292
C     -1.373729     0.294465     2.476338
H     -1.940048     0.402806     1.538044
H     -1.787843     0.986538     3.223019
C     -1.467916    -1.137984     2.964902
H     -2.523051    -1.384374     3.149755
O     -1.022767    -2.055808     1.937080
C      0.331761    -2.424347     2.257352
H      0.542204    -3.351057     1.714342
H      1.022177    -1.634602     1.939478
C      0.319598    -2.571924     3.774050
H      1.321370    -2.520967     4.214744
H     -0.135309    -3.532138     4.046684
C     -0.576453    -1.399003     4.199335
H      0.026173    -0.510420     4.407758
H     -1.174931    -1.629973     5.087514
