32
Energy = -1142.556701437 Hartree (EUMP2 CORRECTED)
O      1.087421    -0.339175    -0.252486
C      1.720984     0.763389    -0.924971
H      2.530593     0.342254    -1.529513
H      2.145027     1.461532    -0.189330
C     -0.241528     0.105044     0.116682
H     -0.921376    -0.728060    -0.091972
H     -0.274381     0.354451     1.183420
C      0.594393     1.407444    -1.717076
H      0.357127     0.784743    -2.589509
H      0.777144     2.431638    -2.054432
C     -0.559455     1.359793    -0.710263
H     -1.532003     1.310708    -1.208557
O     -0.539449     2.479988     0.182565
P     -1.264344     3.913204    -0.371033
O     -1.877998     4.549415     0.848852
O     -1.991682     3.615497    -1.660137
O      0.107328     4.795519    -0.801713
C      1.350627     4.616797    -0.133651
H      1.396933     5.243906     0.768590
H      1.468175     3.571325     0.169318
C      2.469901     5.029226    -1.080179
H      2.032478     5.179326    -2.080895
O      3.068785     6.268044    -0.642948
C      4.234509     6.421393    -1.454446
H      3.958224     6.889045    -2.412258
H      4.915381     7.090407    -0.920702
C      4.798166     4.997568    -1.680860
H      5.736334     4.840000    -1.138965
H      4.997126     4.820663    -2.743591
C      3.672428     4.087780    -1.155561
H      3.901038     3.725855    -0.146026
H      3.482016     3.218713    -1.794074
