32
Energy = -1142.570129152 Hartree (EUMP2 CORRECTED)
O      0.294352    -0.184907     0.299335
C      1.341840     0.638818    -0.262392
H      2.031671    -0.037064    -0.777135
H      1.871189     1.171767     0.537523
C     -0.907819     0.618243     0.372836
H     -1.704082     0.070533    -0.148399
H     -1.187964     0.768059     1.421104
C      0.609434     1.614631    -1.166543
H      0.286145     1.111173    -2.087705
H      1.170364     2.516538    -1.422767
C     -0.599860     1.958285    -0.297450
H     -1.435832     2.355058    -0.884139
O     -0.219526     2.878275     0.728151
P     -0.278979     4.535621     0.361255
O     -0.628469     4.693646    -1.098802
O      0.918648     5.138985     1.049044
O     -1.667817     4.942879     1.210409
C     -1.843929     4.452593     2.538274
H     -1.595454     5.248240     3.253329
H     -1.195965     3.586736     2.728950
C     -3.295361     4.040972     2.714182
H     -3.427551     3.650380     3.733376
O     -4.177221     5.184234     2.617095
C     -4.708352     5.190373     1.280447
H     -5.601384     5.823185     1.298798
H     -3.966821     5.597664     0.583730
C     -4.987130     3.718909     0.996939
H     -5.082377     3.500365    -0.072622
H     -5.913431     3.416822     1.500854
C     -3.766374     3.039691     1.635491
H     -2.973880     2.904404     0.896252
H     -4.008453     2.062573     2.068686
