32
Energy = -1142.564136818 Hartree (EUMP2 CORRECTED)
O      1.712228    -0.334818    -0.888327
C      2.312592     0.924934    -1.256520
H      3.055253     0.709477    -2.030042
H      2.803829     1.386227    -0.388989
C      0.531675     0.026319    -0.146506
H     -0.186907    -0.790082    -0.269898
H      0.769996     0.157814     0.916981
C      1.131913     1.763894    -1.719058
H      0.815020     1.418606    -2.711769
H      1.332979     2.836015    -1.727467
C      0.039145     1.387279    -0.703195
H     -0.929147     1.277807    -1.206284
O     -0.238528     2.280590     0.377195
P      0.822140     3.364103     1.115754
O      1.719894     3.979720     0.056296
O      1.348102     2.765839     2.392573
O     -0.342479     4.477144     1.531312
C     -1.005980     5.178649     0.479437
H     -2.061423     4.876818     0.476329
H     -0.556684     4.940138    -0.494479
C     -0.894130     6.674453     0.720762
H     -1.399665     7.197528    -0.103654
O     -1.601265     7.068064     1.918303
C     -0.634635     7.072775     2.986512
H     -1.059822     7.684291     3.789174
H     -0.462914     6.050720     3.339386
C      0.622647     7.663182     2.353370
H      1.534871     7.356015     2.875962
H      0.564538     8.758275     2.369829
C      0.568788     7.133058     0.908108
H      1.248874     6.289961     0.756118
H      0.829345     7.914084     0.184738
