32
Energy = -1142.559002029 Hartree (EUMP2 CORRECTED)
O      1.297706    -0.404075     0.043158
C      0.388676    -0.506653    -1.079763
H      0.229198    -1.574312    -1.261555
H      0.837536    -0.043204    -1.966714
C      0.962087     0.793090     0.783212
H      0.703149     0.495634     1.808715
H      1.825056     1.467108     0.801249
C     -0.852414     0.256040    -0.650609
H     -1.445685    -0.340687     0.055746
H     -1.476599     0.584464    -1.486123
C     -0.217685     1.446714     0.072087
H     -0.903501     1.959165     0.758286
O      0.316183     2.383216    -0.865702
P     -0.828830     3.377090    -1.638695
O     -1.771413     3.926063    -0.596695
O     -1.300087     2.640480    -2.875559
O      0.240828     4.578684    -2.085017
C      1.589794     4.231786    -2.345318
H      2.072484     3.889129    -1.421188
H      1.658219     3.410957    -3.076984
C      2.316006     5.439743    -2.920625
H      1.927008     5.673641    -3.916274
O      2.135977     6.634287    -2.144525
C      2.953352     6.477176    -0.978929
H      3.194631     7.483968    -0.625668
H      2.387899     5.955621    -0.195805
C      4.190231     5.665973    -1.430232
H      4.355600     4.802927    -0.777180
H      5.101664     6.272704    -1.410703
C      3.833848     5.227707    -2.866956
H      4.125991     4.192779    -3.080592
H      4.319082     5.878185    -3.602473
