32
Energy = -1142.573516052 Hartree (EUMP2 CORRECTED)
O      0.475048    -0.232202     1.100509
C      1.295376     0.953575     1.166531
H      2.267299     0.644561     1.563542
H      0.839419     1.692406     1.839063
C     -0.507110    -0.025278     0.056143
H     -0.470017    -0.900972    -0.603509
H     -1.506008     0.068650     0.494715
C      1.324498     1.473875    -0.260389
H      1.985434     0.846917    -0.874775
H      1.610699     2.524282    -0.354724
C     -0.134097     1.266223    -0.675861
H     -0.281037     1.197616    -1.759593
O     -0.955588     2.316721    -0.150136
P     -1.253764     3.637913    -1.125829
O     -2.275885     4.507748    -0.441534
O     -1.379588     3.153606    -2.558846
O      0.269620     4.351424    -0.964336
C      0.394256     5.769651    -1.048881
H      0.973516     6.099589    -0.176122
H     -0.593052     6.250795    -1.013318
C      1.139825     6.166977    -2.312273
H      1.294405     7.256720    -2.294703
O      2.467124     5.581526    -2.309292
C      2.435578     4.468285    -3.219152
H      3.474547     4.247075    -3.485071
H      1.974502     3.599334    -2.733700
C      1.575179     4.964043    -4.372458
H      1.189073     4.151715    -4.997931
H      2.158794     5.650746    -4.998853
C      0.460591     5.698618    -3.616160
H     -0.350937     4.997710    -3.398407
H      0.053038     6.545032    -4.180700
