32
Energy = -1142.571798845 Hartree (EUMP2 CORRECTED)
O      1.178937    -0.147572    -1.340046
C      2.005358     1.030355    -1.195806
H      2.880444     0.881707    -1.835936
H      2.322979     1.144144    -0.151992
C     -0.193685     0.246415    -1.104410
H     -0.783811    -0.077331    -1.971655
H     -0.568934    -0.238659    -0.197202
C      1.102341     2.180233    -1.607026
H      0.980478     2.198648    -2.698496
H      1.441971     3.158101    -1.254903
C     -0.210091     1.764988    -0.937185
H     -1.091427     2.241101    -1.382332
O     -0.172907     2.036354     0.467111
P     -0.357562     3.653872     0.909919
O     -1.358247     4.283322    -0.042893
O      1.003191     4.246858     1.183453
O     -1.079962     3.380904     2.382433
C     -2.479682     3.595424     2.555923
H     -2.886299     2.711262     3.063693
H     -2.976226     3.726664     1.585724
C     -2.712843     4.818859     3.428766
H     -3.795173     4.922492     3.595637
O     -2.131951     4.626311     4.739303
C     -0.851494     5.287965     4.724032
H     -0.563007     5.434419     5.769930
H     -0.112865     4.665738     4.207386
C     -1.117822     6.579247     3.959744
H     -0.204050     7.023867     3.551550
H     -1.600969     7.307171     4.623179
C     -2.082714     6.109839     2.859245
H     -1.550768     5.898481     1.928892
H     -2.851078     6.858734     2.636312
