32
Energy = -1142.560269646 Hartree (EUMP2 CORRECTED)
O      0.985300    -0.633574     0.114063
C      0.065742    -0.684103    -1.003617
H     -0.143688    -1.741648    -1.193925
H      0.529287    -0.233137    -1.889459
C      0.710969     0.572573     0.865527
H      0.446281     0.279178     1.890692
H      1.603918     1.206132     0.881399
C     -1.136198     0.130652    -0.558991
H     -1.751106    -0.444092     0.147087
H     -1.751224     0.492625    -1.387385
C     -0.442707     1.285147     0.168483
H     -1.100473     1.822180     0.863086
O      0.127332     2.204207    -0.765030
P     -0.976196     3.243351    -1.535014
O     -1.930684     3.790334    -0.503065
O     -1.436461     2.548492    -2.800371
O      0.131184     4.427707    -1.934391
C      1.477859     4.050889    -2.178314
H      1.985569     3.779957    -1.242729
H      1.513074     3.182344    -2.854850
C      2.204185     5.208020    -2.833158
H      1.536291     5.673626    -3.566407
O      2.538394     6.250296    -1.878097
C      3.949748     6.213699    -1.661752
H      4.246771     7.198356    -1.288252
H      4.210527     5.454353    -0.905641
C      4.528621     5.843126    -3.021041
H      5.566649     5.493720    -2.974366
H      4.479815     6.710860    -3.689047
C      3.540872     4.759147    -3.458559
H      3.841806     3.788237    -3.042117
H      3.464472     4.643653    -4.544339
