32
Energy = -1142.570217074 Hartree (EUMP2 CORRECTED)
O      0.626397     0.163632     1.538310
C      1.419346     0.446625     0.362390
H      2.146282    -0.366076     0.262568
H      1.947978     1.398441     0.490155
C     -0.714074     0.653835     1.303976
H     -1.402467    -0.200439     1.370772
H     -0.969247     1.396825     2.065566
C      0.410887     0.532444    -0.767638
H      0.049392    -0.474599    -1.019660
H      0.785790     1.027503    -1.662743
C     -0.735495     1.285599    -0.088920
H     -1.690801     1.131701    -0.609291
O     -0.538165     2.690293     0.105550
P     -0.126617     3.737828    -1.140638
O      0.126890     5.070522    -0.481959
O     -1.071561     3.488623    -2.293911
O      1.338742     3.110091    -1.679618
C      2.574327     3.686568    -1.255385
H      3.213312     2.876222    -0.878643
H      2.405375     4.426004    -0.461451
C      3.256972     4.341970    -2.445497
H      4.239949     4.716178    -2.123551
O      3.527808     3.359867    -3.473274
C      2.465928     3.467254    -4.442627
H      2.832678     2.996016    -5.360484
H      1.570975     2.951299    -4.078574
C      2.225119     4.967155    -4.560762
H      1.233802     5.202940    -4.961990
H      2.986210     5.413251    -5.212994
C      2.398065     5.441282    -3.108768
H      1.435439     5.529081    -2.599065
H      2.893697     6.417014    -3.051175
