32
Energy = -1142.572163927 Hartree (EUMP2 CORRECTED)
O      0.387022     0.062549     0.894209
C      1.492088     0.875419     0.433140
H      2.338262     0.198891     0.276766
H      1.749860     1.623633     1.192633
C     -0.840587     0.671819     0.427778
H     -1.375952    -0.072974    -0.176617
H     -1.455679     0.961653     1.286301
C      0.974701     1.549019    -0.826194
H      0.959154     0.839113    -1.664440
H      1.532597     2.443959    -1.114821
C     -0.452747     1.894722    -0.397947
H     -1.122702     2.084029    -1.243917
O     -0.448152     3.019343     0.482372
P     -0.288987     4.554048    -0.230800
O     -0.774148     4.441352    -1.655176
O      1.059408     5.101134     0.179307
O     -1.484730     5.316295     0.647238
C     -1.155072     5.954222     1.883965
H     -1.211055     7.041251     1.740077
H     -0.133656     5.697061     2.193475
C     -2.152666     5.535230     2.949064
H     -1.886469     6.039574     3.889392
O     -3.484530     6.002669     2.622181
C     -4.185184     4.888934     2.042603
H     -5.253288     5.121638     2.103208
H     -3.884192     4.760999     0.996143
C     -3.749213     3.703669     2.895469
H     -3.919207     2.738324     2.404873
H     -4.298528     3.714064     3.845073
C     -2.257891     4.002741     3.112939
H     -1.651468     3.503931     2.352460
H     -1.909678     3.681921     4.101297
