32
Energy = -1142.556972670 Hartree (EUMP2 CORRECTED)
O      0.928985    -0.746511    -0.144492
C      0.015917    -0.666360    -1.266020
H     -0.277748    -1.692593    -1.508911
H      0.521020    -0.211943    -2.126888
C      0.749914     0.440096     0.664096
H      0.456978     0.120072     1.673507
H      1.691868     0.996698     0.712045
C     -1.118520     0.220872    -0.783942
H     -1.783154    -0.335913    -0.109282
H     -1.697913     0.672127    -1.594087
C     -0.338424     1.277426     0.001791
H     -0.955398     1.832792     0.718510
O      0.309024     2.191753    -0.885064
P     -0.704982     3.350872    -1.603888
O     -1.626554     3.873671    -0.525599
O     -1.215405     2.803727    -2.917512
O      0.492474     4.472154    -1.929296
C      1.848927     4.247344    -1.591802
H      1.992184     4.208130    -0.501541
H      2.198269     3.294068    -2.014778
C      2.686331     5.372699    -2.165600
H      2.313019     5.611016    -3.167768
O      2.563107     6.594605    -1.391805
C      3.782609     6.784750    -0.673577
H      3.849980     7.847737    -0.423354
H      3.781821     6.200063     0.261571
C      4.860501     6.281285    -1.625001
H      5.821746     6.087383    -1.134895
H      5.015560     7.015757    -2.423727
C      4.187898     5.017551    -2.166646
H      4.374258     4.173800    -1.488347
H      4.537437     4.724341    -3.161649
