32
Energy = -1142.571669472 Hartree (EUMP2 CORRECTED)
O      1.051613    -0.293054    -0.657201
C      1.629282     0.780332    -1.430080
H      2.173415     0.315573    -2.258223
H      2.323628     1.362716    -0.810328
C     -0.134540     0.224340    -0.002973
H     -0.960503    -0.458164    -0.239678
H      0.022674     0.256855     1.080193
C      0.437612     1.629314    -1.842244
H     -0.119977     1.130750    -2.646476
H      0.692657     2.649157    -2.143714
C     -0.373270     1.635413    -0.546206
H     -1.436515     1.857361    -0.685028
O      0.203198     2.581053     0.355407
P     -0.686957     3.954275     0.779008
O     -2.150000     3.623746     0.536445
O     -0.003565     5.187531     0.255793
O     -0.381151     3.905008     2.416592
C     -0.926427     2.821569     3.170079
H     -0.095337     2.216120     3.555231
H     -1.575322     2.194585     2.542573
C     -1.746843     3.369862     4.325751
H     -2.170462     2.522313     4.883273
O     -0.916365     4.077565     5.272679
C     -0.944584     5.466394     4.889669
H     -0.625464     6.038034     5.767377
H     -0.256899     5.637603     4.055480
C     -2.393672     5.716616     4.477738
H     -2.484885     6.548195     3.770950
H     -2.996124     5.947013     5.364670
C     -2.823904     4.372823     3.858060
H     -2.850317     4.414914     2.765453
H     -3.816665     4.070578     4.210420
