32
Energy = -1142.560105473 Hartree (EUMP2 CORRECTED)
O      0.328543     0.053698    -1.463590
C      0.981960     1.316949    -1.690764
H      1.316576     1.321551    -2.733330
H      1.842450     1.430104    -1.019016
C     -0.646019     0.241210    -0.403920
H     -1.623006    -0.068451    -0.800154
H     -0.364087    -0.360763     0.460235
C     -0.093292     2.343353    -1.368739
H      0.284117     3.354124    -1.188053
H     -0.847154     2.362764    -2.168076
C     -0.679808     1.742878    -0.089054
H     -1.708087     2.075912     0.103566
O      0.098216     2.226556     1.008591
P      1.101932     1.467342     2.095996
O      1.043575    -0.039374     1.983097
O      0.951387     2.188899     3.416263
O      2.507991     2.037078     1.362195
C      3.735100     1.801773     2.052917
H      4.343487     1.106768     1.459239
H      3.561036     1.361136     3.045385
C      4.465015     3.124077     2.214376
H      5.428196     2.939381     2.712303
O      4.796714     3.681204     0.918703
C      3.788269     4.661424     0.615475
H      4.205611     5.311887    -0.160585
H      2.882595     4.164501     0.249140
C      3.535844     5.355709     1.948414
H      2.569231     5.870686     1.981634
H      4.330072     6.089372     2.135359
C      3.613594     4.186777     2.943435
H      2.620360     3.782206     3.163886
H      4.078844     4.484889     3.890084
