32
Energy = -1142.570918536 Hartree (EUMP2 CORRECTED)
O      0.929048    -0.036972     1.182175
C      1.555617     1.262981     1.191357
H      2.599238     1.109395     1.482902
H      1.060360     1.916634     1.921954
C     -0.178691     0.020341     0.250475
H     -0.079650    -0.837442    -0.425964
H     -1.128428    -0.040095     0.791522
C      1.357360     1.787813    -0.220226
H      2.042272     1.277571    -0.911448
H      1.464095     2.868489    -0.331586
C     -0.084303     1.358305    -0.491441
H     -0.321492     1.250604    -1.556709
O     -0.996854     2.271171     0.127740
P     -1.693130     3.448011    -0.834088
O     -2.154926     4.570303     0.058820
O     -2.576180     2.773567    -1.866002
O     -0.278837     3.905104    -1.642232
C     -0.159483     5.253608    -2.092179
H      0.725968     5.698081    -1.617108
H     -1.039120     5.844749    -1.802777
C      0.021287     5.269454    -3.599879
H      0.135732     6.312861    -3.929945
O      1.261406     4.607263    -3.959896
C      0.915317     3.299458    -4.444947
H      1.768285     2.943325    -5.032116
H      0.730138     2.624192    -3.600330
C     -0.355745     3.531870    -5.250188
H     -0.928822     2.613713    -5.420469
H     -0.098265     3.973865    -6.221075
C     -1.103261     4.532413    -4.357733
H     -1.749762     3.995855    -3.655181
H     -1.719353     5.230381    -4.936056
