32
Energy = -1142.569151975 Hartree (EUMP2 CORRECTED)
O      2.274676     0.807710     0.084373
C      2.424417     2.235538    -0.001369
H      3.411762     2.426578    -0.433301
H      2.361957     2.690212     0.996698
C      0.851772     0.522612     0.109546
H      0.674257    -0.294083    -0.600019
H      0.545190     0.213636     1.113341
C      1.252175     2.669939    -0.866407
H      1.441181     2.390551    -1.911229
H      1.006405     3.733706    -0.804575
C      0.123838     1.819013    -0.282816
H     -0.683503     1.641991    -1.001277
O     -0.353001     2.501611     0.871750
P     -1.888761     2.190828     1.488291
O     -2.845895     3.243367     0.971209
O     -1.724735     1.841148     2.944473
O     -2.209532     0.754166     0.663449
C     -3.220514     0.710223    -0.344507
H     -2.788546     0.224002    -1.231297
H     -3.545349     1.727976    -0.597126
C     -4.411777    -0.104281     0.129928
H     -5.189075    -0.056615    -0.646229
O     -4.091928    -1.501477     0.271265
C     -3.550936    -1.690731     1.600154
H     -3.846452    -2.700645     1.906257
H     -2.458947    -1.624133     1.559386
C     -4.136661    -0.577336     2.487402
H     -3.339239    -0.004866     2.967439
H     -4.792381    -0.988216     3.264168
C     -4.926851     0.314774     1.508878
H     -4.771423     1.381713     1.697875
H     -6.000933     0.100788     1.566992
