32
Energy = -1142.567776882 Hartree (EUMP2 CORRECTED)
O      2.198715     0.736171    -1.074858
C      1.695624     1.736238    -1.990886
H      2.049463     1.458664    -2.988972
H      2.090410     2.724388    -1.722362
C      1.240460     0.592614     0.001963
H      0.920744    -0.457906     0.027659
H      1.712757     0.861064     0.952221
C      0.187495     1.695762    -1.817843
H     -0.230168     0.810924    -2.317619
H     -0.324254     2.595445    -2.166884
C      0.075545     1.530467    -0.301304
H     -0.895825     1.136316     0.017015
O      0.342316     2.760784     0.380468
P     -0.881118     3.911373     0.436467
O     -0.503626     4.891256     1.521393
O     -2.201905     3.187165     0.330977
O     -0.584749     4.656625    -1.049034
C     -0.265979     6.048958    -1.046767
H     -0.382610     6.384192    -2.082900
H     -0.964682     6.600288    -0.406526
C      1.176856     6.311600    -0.612516
H      1.685008     5.341153    -0.494339
O      1.842731     7.073841    -1.654686
C      3.069475     7.546933    -1.080459
H      3.883064     6.849323    -1.329105
H      3.287879     8.514803    -1.543890
C      2.848867     7.627912     0.449784
H      3.027243     8.635649     0.841114
H      3.528806     6.945932     0.972384
C      1.393706     7.173010     0.622118
H      0.709181     8.029962     0.574982
H      1.188691     6.613883     1.537344
