32
Energy = -1142.571357466 Hartree (EUMP2 CORRECTED)
O      1.082375     0.622479     1.399039
C      1.940694     1.635250     0.833732
H      2.962128     1.244737     0.880443
H      1.877061     2.557146     1.426752
C     -0.233440     0.791139     0.817031
H     -0.562037    -0.195576     0.469197
H     -0.932073     1.170791     1.570273
C      1.404029     1.848350    -0.571144
H      1.706705     1.011750    -1.215760
H      1.679528     2.792804    -1.047164
C     -0.105133     1.803447    -0.327072
H     -0.672050     1.492073    -1.213763
O     -0.588290     3.063763     0.150501
P     -1.110689     4.133875    -1.064736
O     -2.526749     3.774290    -1.428885
O      0.013501     4.256929    -2.076802
O     -1.132143     5.483793    -0.091707
C     -0.109126     6.475017    -0.200338
H     -0.571881     7.399811    -0.569362
H      0.661946     6.151907    -0.912049
C      0.504169     6.732535     1.164505
H      1.274021     7.510828     1.056870
O     -0.477319     7.278223     2.078752
C     -0.926296     6.189768     2.905678
H     -1.392431     6.636599     3.789709
H     -1.655738     5.580196     2.359440
C      0.346695     5.403280     3.192506
H      0.150392     4.378406     3.527139
H      0.932671     5.920224     3.962730
C      1.051252     5.451341     1.829141
H      0.769498     4.577398     1.237717
H      2.143152     5.480787     1.921246
