32
Energy = -1142.575182069 Hartree (EUMP2 CORRECTED)
O      1.310172     0.016035     0.534001
C      1.884995     1.066954    -0.269398
H      2.768145     0.646146    -0.759515
H      2.189120     1.907682     0.369613
C     -0.098831     0.314735     0.691390
H     -0.649643    -0.605287     0.461724
H     -0.304231     0.624135     1.721940
C      0.766090     1.475831    -1.211765
H      0.641967     0.709805    -1.989532
H      0.902139     2.453139    -1.681583
C     -0.440988     1.457501    -0.270482
H     -1.389701     1.304674    -0.795649
O     -0.520648     2.663160     0.504167
P     -1.378073     3.953086    -0.164222
O     -1.619203     4.907129     0.977818
O     -2.420350     3.418254    -1.114513
O     -0.176507     4.605936    -1.150598
C      1.013644     5.050803    -0.506855
H      1.512901     4.210076    -0.006781
H      0.782891     5.816582     0.249609
C      1.911932     5.628956    -1.583134
H      2.873484     5.908984    -1.129364
O      2.223858     4.639317    -2.589971
C      1.371812     4.902709    -3.718750
H      1.831779     4.412673    -4.582756
H      0.372230     4.491158    -3.535036
C      1.339244     6.424751    -3.803065
H      0.495663     6.801542    -4.392317
H      2.271117     6.788064    -4.253269
C      1.255212     6.817029    -2.320577
H      0.210142     6.904758    -2.008003
H      1.764780     7.762200    -2.103778
