32
Energy = -1142.568626266 Hartree (EUMP2 CORRECTED)
O      1.606346    -0.161644    -0.725492
C      1.711086     0.845817    -1.749911
H      2.123150     0.353455    -2.636137
H      2.390768     1.645717    -1.426298
C      0.617581     0.306298     0.223202
H     -0.015799    -0.552517     0.471977
H      1.108981     0.680776     1.128530
C      0.289396     1.361770    -1.905138
H     -0.314340     0.620523    -2.445244
H      0.198455     2.333991    -2.397979
C     -0.162201     1.447227    -0.444651
H     -1.246488     1.353939    -0.329780
O      0.269575     2.675636     0.154570
P     -0.767288     4.001615     0.060351
O     -0.361512     4.928134     1.181469
O     -2.162447     3.480282    -0.185084
O     -0.205900     4.658685    -1.387225
C      0.324677     5.986465    -1.410504
H      0.094365     6.497813    -0.470752
H     -0.184922     6.509287    -2.230070
C      1.856020     6.049046    -1.638405
H      2.063814     6.491252    -2.620338
O      2.484172     6.940199    -0.695030
C      2.654344     6.163257     0.515886
H      3.485905     6.623797     1.058231
H      1.741661     6.208976     1.119796
C      2.920610     4.714591     0.065308
H      2.267803     4.019891     0.599025
H      3.962130     4.420955     0.240987
C      2.594169     4.725845    -1.443398
H      1.985302     3.872127    -1.742845
H      3.513565     4.744855    -2.040869
