32
Energy = -1142.570685542 Hartree (EUMP2 CORRECTED)
O      2.186965     0.746204    -0.355251
C      2.496875     2.109007    -0.038174
H      3.465789     2.336555    -0.493083
H      2.555921     2.248389     1.051379
C      0.767059     0.592144    -0.078020
H      0.369630    -0.095761    -0.829662
H      0.626920     0.178830     0.924041
C      1.318608     2.876911    -0.618387
H      1.400008     2.893303    -1.712656
H      1.200105     3.896964    -0.241018
C      0.141822     2.003110    -0.181247
H     -0.677755     2.014957    -0.912444
O     -0.350849     2.544398     1.050041
P     -1.271982     1.612492     2.106469
O     -2.299568     2.543905     2.702041
O     -0.377231     0.700386     2.909109
O     -2.006974     0.595852     0.980860
C     -3.202418     1.037534     0.331314
H     -3.048444     0.964747    -0.754791
H     -3.429285     2.076579     0.605067
C     -4.365256     0.144840     0.729707
H     -5.279108     0.537005     0.260793
O     -4.212376    -1.194564     0.221820
C     -3.438215    -1.945457     1.186859
H     -3.824063    -2.970796     1.153056
H     -2.384814    -1.939248     0.889344
C     -3.629294    -1.259237     2.552294
H     -2.664560    -0.952574     2.962630
H     -4.117889    -1.925868     3.272753
C     -4.506444    -0.030404     2.242849
H     -4.182265     0.861661     2.787810
H     -5.557694    -0.235804     2.479107
