32
Energy = -1142.572177959 Hartree (EUMP2 CORRECTED)
O      0.502662    -0.280308     0.392649
C      1.762138     0.392431     0.556564
H      2.537597    -0.380208     0.586937
H      1.773225     0.962619     1.495711
C     -0.411463     0.641375    -0.266765
H     -0.839093     0.112717    -1.127617
H     -1.210492     0.942016     0.413955
C      1.843826     1.327178    -0.640455
H      2.070658     0.757011    -1.550434
H      2.567031     2.140489    -0.527535
C      0.414691     1.859798    -0.695171
H      0.135634     2.228020    -1.687838
O      0.328345     2.916892     0.274281
P     -0.963597     3.985516     0.108373
O     -0.717730     5.060648     1.134204
O     -2.245304     3.208477    -0.072253
O     -0.633807     4.588472    -1.434687
C      0.689660     4.973032    -1.783492
H      1.428787     4.284914    -1.356530
H      0.906754     5.987138    -1.406762
C      0.777304     4.951434    -3.298873
H      1.779251     5.284024    -3.605542
O      0.643027     3.595659    -3.789828
C     -0.713371     3.441011    -4.246738
H     -0.723320     2.576352    -4.917829
H     -1.379479     3.268779    -3.392684
C     -1.016570     4.769209    -4.928500
H     -2.090151     4.952100    -5.048886
H     -0.543739     4.790989    -5.917916
C     -0.345088     5.769944    -3.976738
H     -1.056096     6.110004    -3.218535
H      0.053393     6.645651    -4.501268
