32
Energy = -1142.570050722 Hartree (EUMP2 CORRECTED)
O      1.081714     0.256242     1.450127
C      1.635876     1.565744     1.206407
H      2.700260     1.510160     1.454586
H      1.144970     2.310618     1.846892
C     -0.079372     0.109902     0.596424
H      0.024487    -0.845577     0.067858
H     -0.992161     0.104092     1.200649
C      1.334132     1.834957    -0.258084
H      2.007662     1.248290    -0.897653
H      1.380252     2.886703    -0.547656
C     -0.096165     1.305168    -0.363457
H     -0.375760     1.009845    -1.381487
O     -1.017368     2.266335     0.153555
P     -1.781869     3.319541    -0.904631
O     -1.914639     4.658788    -0.223690
O     -2.932998     2.580987    -1.551796
O     -0.554593     3.399088    -2.065941
C     -0.179819     4.668318    -2.602781
H      0.909940     4.772004    -2.497505
H     -0.668955     5.475995    -2.042232
C     -0.533882     4.755864    -4.076817
H     -0.287330     5.768671    -4.426508
O      0.269733     3.867336    -4.878820
C     -0.390691     2.581202    -4.895902
H     -0.164226     2.136766    -5.871805
H      0.025871     1.950654    -4.102777
C     -1.890062     2.842117    -4.666351
H     -2.261770     2.294126    -3.797228
H     -2.484455     2.562421    -5.544324
C     -1.976567     4.355806    -4.392850
H     -2.663637     4.574495    -3.569494
H     -2.310350     4.898832    -5.285400
