32
Energy = -1142.561274735 Hartree (EUMP2 CORRECTED)
O      1.534445     0.231748     0.193006
C      1.933891     1.380043    -0.587767
H      2.806907     1.077788    -1.174889
H      2.211768     2.207094     0.079811
C      0.102099     0.311801     0.399515
H     -0.336252    -0.626088     0.034081
H     -0.111154     0.431445     1.466642
C      0.707710     1.735234    -1.410185
H      0.590835     1.016796    -2.233576
H      0.709050     2.753867    -1.806546
C     -0.406315     1.522140    -0.382440
H     -1.387674     1.356530    -0.840602
O     -0.490325     2.617859     0.538661
P     -1.384634     3.965741     0.060539
O     -1.546588     4.811691     1.297604
O     -2.488923     3.511836    -0.861403
O     -0.240511     4.694121    -0.940362
C      0.831701     5.349752    -0.274027
H      0.460163     6.204454     0.304504
H      1.296487     4.651214     0.437061
C      1.886628     5.792671    -1.321125
H      2.875166     5.483194    -0.959866
O      1.736973     5.146900    -2.592236
C      0.883876     6.008600    -3.360588
H      0.950604     5.678689    -4.401382
H     -0.149246     5.914910    -3.003428
C      1.461621     7.399724    -3.102055
H      0.744712     8.203970    -3.302480
H      2.340384     7.555281    -3.737843
C      1.869096     7.315665    -1.615355
H      1.139948     7.824025    -0.976291
H      2.847072     7.773834    -1.433707
