32
Energy = -1142.572022843 Hartree (EUMP2 CORRECTED)
O      0.145039    -0.611266     0.152690
C      1.236047     0.055199    -0.524255
H      1.870115    -0.729102    -0.949550
H      1.815109     0.648488     0.194897
C     -1.010645     0.259151     0.097611
H     -1.829549    -0.303546    -0.369907
H     -1.296942     0.559313     1.110574
C      0.563257     0.953794    -1.546581
H      0.198968     0.357310    -2.394532
H      1.171906     1.783323    -1.913624
C     -0.615307     1.481708    -0.729705
H     -1.442331     1.847912    -1.351484
O     -0.178627     2.492348     0.181515
P     -0.145301     4.080841    -0.397706
O     -1.422327     4.766269     0.041696
O      0.350515     4.072280    -1.823472
O      1.113281     4.604048     0.555324
C      0.868835     4.855290     1.942143
H      1.486998     4.161572     2.526467
H     -0.190563     4.698387     2.184624
C      1.251841     6.288048     2.271363
H      1.074954     6.457398     3.343310
O      2.668090     6.505768     2.072285
C      2.819662     7.074518     0.757893
H      3.806369     7.548673     0.734025
H      2.759044     6.286273    -0.000039
C      1.654234     8.051274     0.639597
H      1.397427     8.274121    -0.401709
H      1.909298     8.990815     1.144965
C      0.522418     7.318483     1.380964
H     -0.151605     6.804989     0.689585
H     -0.078359     8.006308     1.986615
