32
Energy = -1142.568411970 Hartree (EUMP2 CORRECTED)
O      0.541557    -0.456864     1.296595
C     -0.460903     0.435866     1.815664
H     -0.057444     1.022161     2.653862
H     -1.289399    -0.186870     2.166718
C      1.390219     0.335653     0.426553
H      2.315391     0.598313     0.952222
H      1.616074    -0.274310    -0.453530
C     -0.783611     1.335782     0.634075
H     -1.290347     2.271340     0.885978
H     -1.377565     0.775930    -0.100309
C      0.616518     1.623391     0.087357
H      0.619947     1.829455    -0.986255
O      1.173329     2.722431     0.809755
P      1.812492     4.057043    -0.005031
O      3.011563     4.503398     0.792996
O      0.675003     4.940982    -0.452195
O      2.338549     3.305157    -1.420879
C      3.578481     2.604260    -1.362681
H      4.400310     3.297999    -1.132323
H      3.560354     1.831242    -0.582723
C      3.788795     1.952478    -2.715074
H      4.748607     1.416733    -2.709299
O      2.773150     0.943487    -2.948097
C      1.813699     1.504952    -3.858618
H      1.275062     0.665712    -4.309997
H      1.115598     2.155160    -3.316542
C      2.663029     2.308509    -4.834660
H      2.083306     3.046243    -5.400696
H      3.153535     1.628612    -5.541929
C      3.685038     2.951660    -3.888029
H      3.307310     3.908579    -3.516020
H      4.657117     3.118956    -4.365018
