32
Energy = -1142.574659849 Hartree (EUMP2 CORRECTED)
O      1.132961     0.058548     0.970453
C      1.877873     1.044041     0.223435
H      2.828303     0.579533    -0.057667
H      2.069653     1.925446     0.850224
C     -0.277769     0.330493     0.775973
H     -0.744536    -0.596929     0.420346
H     -0.731715     0.636120     1.723748
C      0.973649     1.399363    -0.944198
H      0.981257     0.583952    -1.681510
H      1.217119     2.337268    -1.447126
C     -0.387770     1.459968    -0.250711
H     -1.239190     1.320543    -0.927371
O     -0.533462     2.693361     0.463379
P     -1.449667     3.892738    -0.282082
O     -1.310058     5.126724     0.570696
O     -2.745879     3.277501    -0.751403
O     -0.539922     4.091143    -1.690277
C      0.509792     5.054255    -1.669916
H      1.332262     4.721183    -1.019412
H      0.142538     6.016807    -1.287590
C      1.011942     5.199502    -3.093163
H      1.811686     5.952993    -3.115386
O      1.622554     3.964342    -3.544876
C      0.654680     3.289605    -4.366464
H      1.206150     2.567209    -4.976853
H     -0.077820     2.772356    -3.734930
C      0.001082     4.414826    -5.159004
H     -0.966250     4.129487    -5.587312
H      0.667390     4.726139    -5.972752
C     -0.120900     5.515258    -4.094972
H     -1.085640     5.445614    -3.584385
H     -0.018802     6.520703    -4.518134
