32
Energy = -1142.570685814 Hartree (EUMP2 CORRECTED)
O      1.401686    -0.071396     0.226594
C      1.977291     0.939379    -0.629260
H      2.781052     0.455752    -1.193258
H      2.390620     1.756608    -0.023593
C      0.018677     0.289037     0.463674
H     -0.595776    -0.583129     0.207154
H     -0.123399     0.547666     1.517985
C      0.813165     1.431336    -1.471776
H      0.562865     0.686974    -2.239917
H      0.968713     2.409448    -1.933036
C     -0.297830     1.494194    -0.422381
H     -1.305691     1.462646    -0.849964
O     -0.160105     2.670018     0.387584
P     -0.933561     4.058292    -0.116171
O     -0.929608     5.036642     1.033162
O     -2.179296     3.690287    -0.895067
O      0.253993     4.537872    -1.224355
C     -0.034556     5.756486    -1.917203
H     -0.940396     6.239960    -1.530716
H     -0.188792     5.535830    -2.981491
C      1.174749     6.662835    -1.743461
H      2.077000     6.113927    -2.032424
O      1.070977     7.786885    -2.663666
C      0.473944     8.862467    -1.927656
H      0.673604     9.782388    -2.485773
H     -0.615205     8.722291    -1.851002
C      1.136672     8.790801    -0.558848
H      0.557980     9.294466     0.223635
H      2.126037     9.260148    -0.612587
C      1.256616     7.274842    -0.327773
H      0.450953     6.874085     0.297665
H      2.198639     7.014924     0.166115
