32
Energy = -1142.563359884 Hartree (EUMP2 CORRECTED)
O      0.724279    -0.407434     0.561456
C      1.162957     0.037183    -0.746039
H      0.661337    -0.571722    -1.512440
H      2.242139    -0.139469    -0.812083
C     -0.211113     0.561158     1.089057
H     -1.082053     0.022958     1.476209
H      0.258667     1.128448     1.902964
C      0.763796     1.499924    -0.850877
H      0.630884     1.846961    -1.878941
H      1.486722     2.152370    -0.345726
C     -0.544575     1.510428    -0.057663
H     -1.362485     1.120335    -0.677632
O     -0.917175     2.767908     0.487150
P     -1.622962     3.880280    -0.572647
O     -2.105259     5.017645     0.288451
O     -2.436096     3.118567    -1.589840
O     -0.235361     4.362979    -1.394703
C      0.650199     5.239772    -0.696802
H      1.061555     4.747125     0.194057
H      0.093071     6.125542    -0.370222
C      1.819963     5.633761    -1.613704
H      1.898160     6.729308    -1.662299
O      3.079573     5.176832    -1.022340
C      3.813678     4.412572    -1.990451
H      4.879099     4.605027    -1.824508
H      3.619543     3.338636    -1.845611
C      3.288600     4.879114    -3.340189
H      3.485555     4.163508    -4.146885
H      3.742203     5.841640    -3.609078
C      1.802768     5.036734    -3.022793
H      1.297707     4.067705    -3.002505
H      1.262536     5.675939    -3.728790
