32
Energy = -1142.571508332 Hartree (EUMP2 CORRECTED)
O      1.359232    -0.185382     0.159942
C      1.961566     0.871270    -0.617168
H      2.799314     0.425252    -1.162470
H      2.332506     1.664457     0.045596
C     -0.038513     0.147949     0.346521
H     -0.627667    -0.718270     0.020165
H     -0.234074     0.355259     1.403521
C      0.833092     1.388688    -1.492435
H      0.630148     0.679292    -2.306315
H      1.000067     2.389873    -1.896415
C     -0.328677     1.390917    -0.495825
H     -1.313894     1.365150    -0.974423
O     -0.250009     2.526001     0.375161
P     -0.995861     3.939572    -0.118461
O     -1.024219     4.856169     1.076538
O     -2.198811     3.600705    -0.974108
O      0.237112     4.457983    -1.152690
C     -0.127064     5.244076    -2.287683
H     -1.109722     5.712474    -2.161845
H     -0.175823     4.586556    -3.171765
C      0.927291     6.323541    -2.508109
H      0.893725     6.648692    -3.556341
O      0.660322     7.505042    -1.732084
C      1.135043     7.225814    -0.391682
H      1.368550     8.198345     0.053644
H      0.351462     6.728421     0.188731
C      2.363832     6.311436    -0.561690
H      2.272150     5.436615     0.085729
H      3.295076     6.836620    -0.318322
C      2.329305     5.904077    -2.048874
H      2.509228     4.833738    -2.190806
H      3.074222     6.465737    -2.625365
