32
Energy = -1142.567964050 Hartree (EUMP2 CORRECTED)
O      0.849718    -0.442161     0.268579
C      1.811594     0.414788    -0.380182
H      2.535740    -0.239862    -0.874940
H      2.325296     1.039886     0.362533
C     -0.386822     0.303381     0.385823
H     -1.189231    -0.335991    -0.001681
H     -0.579083     0.548218     1.435528
C      0.979177     1.272652    -1.317998
H      0.665137     0.681841    -2.189339
H      1.468482     2.193680    -1.644021
C     -0.225485     1.590329    -0.428493
H     -1.132859     1.851005    -0.985428
O      0.099764     2.647143     0.482652
P     -0.340020     4.199847     0.046535
O      0.016519     5.078502     1.216020
O     -1.700817     4.177908    -0.620163
O      0.812680     4.425778    -1.170417
C      0.435467     5.000702    -2.422140
H     -0.655668     5.045672    -2.510487
H      0.815355     4.321530    -3.200300
C      1.030690     6.408641    -2.655536
H      1.539385     6.434750    -3.626602
O     -0.013304     7.400443    -2.760317
C     -0.393083     7.677023    -1.393501
H     -0.903069     8.644882    -1.403135
H     -1.090719     6.907375    -1.039519
C      0.912367     7.654331    -0.582199
H      0.772679     7.106091     0.353167
H      1.257040     8.670925    -0.360826
C      1.909528     6.926870    -1.511644
H      2.433790     6.117214    -0.999027
H      2.642883     7.629913    -1.924101
