32
Energy = -1142.572004328 Hartree (EUMP2 CORRECTED)
O      1.573427     0.078832     0.095094
C      1.982086     1.202739    -0.713117
H      2.871951     0.887370    -1.267152
H      2.230477     2.059043    -0.072282
C      0.142456     0.181565     0.300732
H     -0.301048    -0.775164    -0.002874
H     -0.068774     0.371718     1.357969
C      0.769114     1.510860    -1.574000
H      0.669895     0.763291    -2.372693
H      0.765870     2.516184    -1.999847
C     -0.359798     1.344637    -0.555049
H     -1.331485     1.151895    -1.021650
O     -0.454128     2.490203     0.298728
P     -1.320586     3.810979    -0.262100
O     -1.730271     4.615133     0.941322
O     -2.261452     3.353977    -1.359217
O     -0.016672     4.587849    -1.012668
C     -0.330274     5.385186    -2.153425
H     -1.155367     6.078286    -1.939819
H     -0.632764     4.738860    -2.992173
C      0.904832     6.185596    -2.527952
H      0.733628     6.649493    -3.508778
O      1.152272     7.276567    -1.624844
C      1.867652     6.735810    -0.491344
H      2.489210     7.551743    -0.107401
H      1.153215     6.418338     0.273655
C      2.680783     5.537582    -1.021889
H      2.457667     4.644154    -0.435054
H      3.759504     5.728618    -0.977634
C      2.200018     5.368185    -2.477021
H      2.039268     4.319284    -2.744725
H      2.924255     5.798939    -3.178773
