32
Energy = -1142.552828671 Hartree (EUMP2 CORRECTED)
O      2.277064     0.703438    -0.294753
C      1.919138     1.909474    -1.004157
H      2.594153     1.983311    -1.861984
H      2.040425     2.787567    -0.357580
C      1.105506     0.271622     0.430931
H      0.970219    -0.797797     0.224908
H      1.244117     0.429868     1.505991
C      0.455741     1.716941    -1.361744
H      0.358708     0.992558    -2.182687
H     -0.047110     2.656785    -1.606362
C     -0.082277     1.113069    -0.059483
H     -0.966757     0.484266    -0.199930
O     -0.324299     2.099516     0.937545
P     -1.367057     3.425802     0.850115
O     -0.796105     4.358966    -0.202968
O     -1.667057     3.812752     2.268300
O     -2.812639     2.857869     0.192536
C     -3.064199     1.807226    -0.714384
H     -3.149674     0.846623    -0.186870
H     -2.282766     1.732100    -1.487160
C     -4.376965     2.115284    -1.419590
H     -4.558832     1.340042    -2.177673
O     -5.492434     2.039856    -0.508638
C     -5.739567     3.381279    -0.041993
H     -6.758621     3.389975     0.357453
H     -5.020828     3.640835     0.741822
C     -5.549818     4.243751    -1.286172
H     -5.323995     5.287551    -1.043247
H     -6.460697     4.215903    -1.896382
C     -4.385460     3.543857    -2.009515
H     -3.435592     4.040524    -1.789537
H     -4.530381     3.527276    -3.095574
