32
Energy = -1142.563248414 Hartree (EUMP2 CORRECTED)
O      1.177868    -0.085961     0.213476
C      1.948794     1.074670    -0.161958
H      2.910372     0.709112    -0.535318
H      2.112194     1.720398     0.711317
C     -0.220759     0.280055     0.126713
H     -0.725603    -0.504350    -0.450354
H     -0.656035     0.343719     1.129560
C      1.088865     1.780338    -1.196242
H      1.125942     1.233447    -2.148789
H      1.355875     2.825945    -1.365735
C     -0.297393     1.649498    -0.558096
H     -1.127947     1.703590    -1.272431
O     -0.467421     2.642990     0.455784
P     -1.320040     4.035847     0.059008
O     -1.369878     4.856342     1.314863
O     -2.513414     3.642526    -0.790521
O     -0.204999     4.772534    -0.982861
C     -0.477123     4.733859    -2.379155
H     -0.503279     3.707490    -2.774277
H     -1.457987     5.187793    -2.574589
C      0.615517     5.508251    -3.097082
H      1.019107     6.250864    -2.398639
O      1.733874     4.652602    -3.469305
C      1.828145     4.624516    -4.896683
H      2.871818     4.416529    -5.152006
H      1.195509     3.821616    -5.310562
C      1.322912     5.990740    -5.343317
H      1.049624     6.026419    -6.404350
H      2.090699     6.749816    -5.152712
C      0.133882     6.168322    -4.398399
H     -0.739725     5.632318    -4.793630
H     -0.159197     7.210475    -4.237674
