32
Energy = -1142.566885292 Hartree (EUMP2 CORRECTED)
O      1.163006    -0.212108     0.696313
C      1.862453     0.737218    -0.133717
H      2.736855     0.218997    -0.538859
H      2.186236     1.600343     0.463221
C     -0.216290     0.220415     0.769559
H     -0.841099    -0.660994     0.582072
H     -0.433187     0.626836     1.762947
C      0.831478     1.157968    -1.166978
H      0.685063     0.350221    -1.898079
H      1.060114     2.090552    -1.687323
C     -0.412722     1.316762    -0.288521
H     -1.354260     1.175925    -0.834985
O     -0.400656     2.571282     0.381960
P     -1.107478     3.922055    -0.345059
O     -0.209260     5.090490    -0.043654
O     -2.596704     3.871675    -0.087589
O     -0.863555     3.535757    -1.969519
C     -1.924987     3.078946    -2.801277
H     -2.894570     3.290955    -2.336783
H     -1.826752     1.989442    -2.956490
C     -1.812068     3.770028    -4.150943
H     -2.489444     3.267531    -4.855901
O     -2.239539     5.138539    -4.110346
C     -1.115752     5.936235    -3.666851
H     -1.223485     6.908136    -4.160479
H     -1.157335     6.067426    -2.582092
C      0.156427     5.172491    -4.084302
H      0.781640     4.992129    -3.207583
H      0.738749     5.729965    -4.827503
C     -0.369815     3.845508    -4.665860
H      0.227906     2.984996    -4.346743
H     -0.380178     3.876687    -5.762134
