32
Energy = -1142.571675276 Hartree (EUMP2 CORRECTED)
O      1.093548    -0.147060     0.389194
C      1.819543     1.062289     0.087621
H      2.862367     0.773125    -0.076616
H      1.758360     1.762657     0.931536
C     -0.287233     0.065532     0.002994
H     -0.584039    -0.786260    -0.620964
H     -0.921777     0.114603     0.893812
C      1.112653     1.629256    -1.131739
H      1.376830     1.045840    -2.024724
H      1.292076     2.690016    -1.312164
C     -0.351106     1.392653    -0.757937
H     -1.028020     1.355439    -1.618854
O     -0.797895     2.400682     0.156939
P     -1.624402     3.711141    -0.467609
O     -2.145723     4.515013     0.692736
O     -2.477370     3.252849    -1.635100
O     -0.270376     4.491501    -1.130988
C     -0.579114     5.720246    -1.790161
H     -0.770574     6.508130    -1.050100
H     -1.473432     5.594536    -2.420643
C      0.589448     6.116463    -2.673450
H      0.297594     7.001828    -3.254561
O      1.734254     6.532210    -1.892952
C      2.595762     5.390527    -1.775907
H      3.584385     5.766646    -1.493810
H      2.217992     4.716675    -0.998296
C      2.544247     4.746287    -3.158817
H      2.837748     3.690560    -3.149780
H      3.217901     5.285266    -3.835657
C      1.076010     4.955327    -3.570672
H      0.475910     4.063325    -3.369972
H      0.981113     5.202947    -4.633600
