32
Energy = -1142.562618914 Hartree (EUMP2 CORRECTED)
O      1.386922    -0.023960    -1.180388
C      0.378651     0.216772    -2.195560
H      0.274362    -0.708089    -2.772673
H      0.711875     1.025816    -2.856251
C      0.969335     0.626679     0.041368
H      0.733876    -0.145137     0.788993
H      1.786044     1.256277     0.407810
C     -0.872587     0.628300    -1.436609
H     -1.387963    -0.250622    -1.025660
H     -1.566633     1.222946    -2.036769
C     -0.260037     1.452006    -0.302111
H     -0.937253     1.604068     0.547496
O      0.201545     2.712255    -0.788682
P     -1.002570     3.869734    -1.096095
O     -1.939404     3.847797     0.092452
O     -1.485711     3.719012    -2.519704
O     -0.002385     5.201868    -1.036874
C      1.315213     5.185633    -0.494873
H      1.497167     6.196059    -0.112123
H      1.401464     4.468678     0.329467
C      2.351453     4.905492    -1.584137
H      1.901907     5.165273    -2.553594
O      3.489583     5.789543    -1.337357
C      4.707599     5.134133    -1.737829
H      5.244324     5.786696    -2.437667
H      5.332977     4.992650    -0.845091
C      4.294459     3.794909    -2.349733
H      5.048706     3.013210    -2.204278
H      4.117977     3.900665    -3.427142
C      2.978102     3.519485    -1.627484
H      3.164738     3.170820    -0.603441
H      2.334853     2.786530    -2.117720
