32
Energy = -1142.572458227 Hartree (EUMP2 CORRECTED)
O      1.598444     0.966831     1.289051
C      2.151472     1.667502     0.152884
H      3.121100     1.207771    -0.064341
H      2.299210     2.725476     0.407943
C      0.155190     0.960987     1.156671
H     -0.174968    -0.086389     1.143022
H     -0.293709     1.481441     2.008072
C      1.113990     1.509003    -0.945855
H      1.165888     0.497269    -1.371200
H      1.162319     2.242468    -1.754013
C     -0.178730     1.677264    -0.150025
H     -1.050453     1.241621    -0.653257
O     -0.406975     3.052564     0.162297
P     -1.312949     3.958949    -0.958489
O     -2.733991     4.073581    -0.478263
O     -0.909569     3.461705    -2.332021
O     -0.576080     5.417064    -0.636260
C      0.830654     5.536522    -0.840465
H      1.007524     6.116372    -1.755840
H      1.300136     4.550713    -0.954364
C      1.445514     6.253674     0.349161
H      2.529253     6.337088     0.180587
O      0.959006     7.613796     0.435793
C     -0.091881     7.617035     1.419613
H     -0.228242     8.657928     1.730136
H     -1.017028     7.227071     0.980199
C      0.434003     6.697436     2.515067
H     -0.358866     6.318333     3.169322
H      1.165913     7.238015     3.127954
C      1.109627     5.583023     1.700401
H      0.428308     4.744151     1.538554
H      2.011749     5.200496     2.191583
