32
Energy = -1142.569199078 Hartree (EUMP2 CORRECTED)
O      1.866059     0.675039     1.339324
C      2.198611     1.816463     0.524427
H      3.268003     1.747289     0.301475
H      1.993251     2.746579     1.070755
C      0.465419     0.367500     1.118875
H      0.403004    -0.696660     0.859608
H     -0.110441     0.564724     2.027978
C      1.285738     1.694166    -0.685689
H      1.651424     0.905533    -1.357115
H      1.159346     2.624843    -1.244918
C     -0.022958     1.270805    -0.017797
H     -0.705968     0.749620    -0.695543
O     -0.646519     2.424037     0.546171
P     -2.117083     2.965176    -0.073921
O     -2.075890     4.472991    -0.006067
O     -3.224954     2.101648     0.475771
O     -1.964591     2.470387    -1.677313
C     -1.397457     3.353445    -2.645701
H     -0.567706     2.829421    -3.139997
H     -1.026450     4.270325    -2.167047
C     -2.448785     3.708890    -3.685061
H     -1.982279     4.348187    -4.448908
O     -2.892609     2.523383    -4.384656
C     -4.112528     2.096496    -3.745492
H     -4.621644     1.435774    -4.454770
H     -3.881746     1.558575    -2.819918
C     -4.853581     3.397129    -3.458346
H     -5.597197     3.289042    -2.661626
H     -5.360114     3.742051    -4.368222
C     -3.711672     4.351189    -3.069639
H     -3.603998     4.431425    -1.984900
H     -3.871266     5.361377    -3.463305
