32
Energy = -1142.556821296 Hartree (EUMP2 CORRECTED)
O      0.925358    -0.405358    -0.138217
C      1.568346     0.618773    -0.917356
H      2.319819     0.120110    -1.537472
H      2.067824     1.339963    -0.254751
C     -0.345906     0.139689     0.290947
H     -1.078383    -0.670530     0.211491
H     -0.280372     0.481370     1.330576
C      0.427251     1.267106    -1.684719
H      0.112913     0.605403    -2.502207
H      0.634832     2.258992    -2.095408
C     -0.669775     1.336846    -0.617106
H     -1.668568     1.280985    -1.059663
O     -0.571097     2.520934     0.183662
P     -1.235984     3.941141    -0.467556
O     -1.816896     4.690341     0.703286
O     -1.979957     3.587564    -1.732835
O      0.172589     4.731507    -0.957588
C      1.407339     4.541809    -0.273611
H      1.446217     5.176548     0.623138
H      1.516394     3.498967     0.039608
C      2.529062     4.956348    -1.220347
H      2.073216     5.387257    -2.126120
O      3.356333     5.956889    -0.581809
C      4.512942     6.093318    -1.413428
H      4.328109     6.863038    -2.177914
H      5.332846     6.428125    -0.771260
C      4.755321     4.710296    -2.067095
H      5.711508     4.270952    -1.764195
H      4.761378     4.793626    -3.159500
C      3.554321     3.884470    -1.582365
H      3.805914     3.324202    -0.674418
H      3.181068     3.177587    -2.331398
