32
Energy = -1142.564567020 Hartree (EUMP2 CORRECTED)
O      1.665246     0.265565     0.629025
C      2.087567     1.379539    -0.182721
H      3.004249     1.069394    -0.694211
H      2.292581     2.254327     0.448448
C      0.228431     0.365911     0.799396
H     -0.198045    -0.607786     0.527542
H     -0.010905     0.603919     1.840474
C      0.903852     1.646528    -1.098819
H      0.854390     0.881208    -1.885046
H      0.905152     2.644193    -1.547320
C     -0.261902     1.491921    -0.117989
H     -1.208763     1.241527    -0.605937
O     -0.384667     2.685815     0.646095
P     -1.705393     3.736558     0.567912
O     -1.222990     5.030757    -0.047220
O     -2.455306     3.627960     1.868855
O     -2.647990     2.935887    -0.579935
C     -2.475561     3.274023    -1.953660
H     -1.490294     2.952095    -2.320639
H     -2.552667     4.361094    -2.093529
C     -3.558110     2.547435    -2.727147
H     -3.467232     2.799771    -3.793038
O     -3.359043     1.113432    -2.642302
C     -4.287384     0.613401    -1.664294
H     -4.395347    -0.459931    -1.850202
H     -3.897944     0.786754    -0.653770
C     -5.552043     1.425646    -1.912226
H     -6.245463     1.406467    -1.064136
H     -6.069587     1.038675    -2.798485
C     -4.974905     2.823301    -2.177333
H     -4.898097     3.386455    -1.242796
H     -5.578948     3.400018    -2.886483
