32
Energy = -1142.561317045 Hartree (EUMP2 CORRECTED)
O      1.487044     0.351330     0.274682
C      1.909995     1.474650    -0.532145
H      2.820997     1.166648    -1.055227
H      2.131825     2.334906     0.113629
C      0.040895     0.382263     0.361464
H     -0.337923    -0.569413    -0.035245
H     -0.261231     0.496257     1.407298
C      0.728590     1.771880    -1.438082
H      0.671013     1.022572    -2.239887
H      0.739048     2.776991    -1.866441
C     -0.438373     1.570754    -0.467771
H     -1.392316     1.387546    -0.974996
O     -0.580457     2.678318     0.430543
P     -1.376446     4.048639    -0.139801
O     -1.633984     4.921342     1.061931
O     -2.401201     3.610805    -1.157847
O     -0.117500     4.724557    -1.035695
C      0.741636     5.627374    -0.355624
H      0.192897     6.546751    -0.111258
H      1.082488     5.196805     0.596482
C      1.969679     5.932531    -1.255258
H      2.881995     5.528251    -0.803016
O      1.902967     5.338688    -2.556535
C      1.009294     6.155224    -3.342441
H      1.418256     6.173218    -4.358632
H      0.017302     5.693251    -3.345773
C      0.994678     7.547229    -2.671946
H      0.013563     7.743455    -2.227928
H      1.209925     8.355289    -3.379655
C      2.065955     7.423197    -1.574576
H      1.873068     8.068536    -0.710152
H      3.062154     7.652618    -1.971138
