32
Energy = -1142.571091502 Hartree (EUMP2 CORRECTED)
O      1.318848     0.724262     1.341475
C      1.974260     1.276369     0.177153
H      2.833878     0.633970    -0.039446
H      2.326980     2.292548     0.398453
C     -0.101569     0.983799     1.225651
H     -0.622077     0.016806     1.241958
H     -0.432760     1.597633     2.068965
C      0.907710     1.294608    -0.904286
H      0.760802     0.283877    -1.309467
H      1.080279     1.998877    -1.721971
C     -0.316192     1.719562    -0.094396
H     -1.267855     1.448775    -0.569606
O     -0.272709     3.121317     0.181243
P     -1.028960     4.122756    -0.968462
O     -2.503074     4.208853    -0.669133
O     -0.467331     3.726373    -2.318704
O     -0.341119     5.540458    -0.438521
C      1.049705     5.615205    -0.128833
H      1.540714     6.244517    -0.883086
H      1.511588     4.620055    -0.135315
C      1.217969     6.245396     1.243743
H      2.293057     6.302181     1.469057
O      0.747533     7.614301     1.236086
C     -0.576904     7.602116     1.800498
H     -0.798651     8.630371     2.103861
H     -1.300457     7.261390     1.051203
C     -0.468462     6.614314     2.955212
H     -1.442249     6.232707     3.281446
H      0.023447     7.098891     3.807822
C      0.422308     5.518064     2.350960
H     -0.181053     4.720579     1.911261
H      1.091553     5.068080     3.093187
