32
Energy = -1142.562632004 Hartree (EUMP2 CORRECTED)
O      0.895980    -0.354421    -0.102929
C      1.572914     0.694699    -0.819010
H      2.374015     0.219517    -1.393955
H      2.010850     1.413023    -0.111875
C     -0.427909     0.140852     0.216271
H     -1.128550    -0.676596     0.013081
H     -0.480937     0.422910     1.273909
C      0.477807     1.339571    -1.652956
H      0.226260     0.686047    -2.498674
H      0.701026     2.341738    -2.028860
C     -0.684400     1.377430    -0.656295
H     -1.656621     1.355483    -1.157986
O     -0.617314     2.526648     0.197334
P     -1.235830     3.978770    -0.424192
O     -1.684599     4.762648     0.781577
O     -2.070674     3.669019    -1.641908
O      0.184986     4.678113    -1.009048
C      1.345149     4.641421    -0.176925
H      1.225069     5.336816     0.664590
H      1.504937     3.635224     0.225737
C      2.519021     5.092495    -1.034665
H      2.127346     5.675743    -1.883406
O      3.383381     5.929867    -0.229435
C      4.612886     6.066918    -0.953482
H      4.586528     6.989358    -1.552125
H      5.412716     6.155879    -0.211874
C      4.743250     4.816701    -1.856095
H      5.666637     4.259349    -1.666065
H      4.740595     5.101424    -2.914166
C      3.485401     4.011535    -1.507609
H      3.675914     3.329530    -0.671199
H      3.094996     3.429033    -2.349165
