32
Energy = -1142.560814392 Hartree (EUMP2 CORRECTED)
O     -0.282382     0.808613    -1.650355
C      0.530461     1.990593    -1.810996
H      0.564920     2.201374    -2.885306
H      1.537630     1.801495    -1.430582
C     -0.947303     0.875495    -0.373968
H     -2.015288     0.700236    -0.562012
H     -0.577264     0.099917     0.300181
C     -0.183627     3.060399    -0.995899
H      0.465369     3.875464    -0.662670
H     -1.021262     3.473356    -1.574639
C     -0.724214     2.281264     0.213470
H     -1.677870     2.702457     0.554884
O      0.125521     2.386057     1.345461
P      1.447581     1.492593     1.860557
O      0.982950     0.491652     2.897326
O      2.557796     2.487242     2.090770
O      1.819225     0.639778     0.462534
C      1.799351    -0.788773     0.434013
H      1.256950    -1.172802     1.308472
H      1.287667    -1.081611    -0.492016
C      3.207024    -1.360336     0.423966
H      3.121991    -2.455654     0.470838
O      3.900975    -1.082326    -0.807909
C      4.539866     0.205601    -0.662035
H      5.445692     0.167336    -1.277833
H      3.873414     0.986955    -1.042556
C      4.816518     0.402722     0.838877
H      4.386949     1.342648     1.194318
H      5.892627     0.401662     1.049434
C      4.118046    -0.793785     1.516383
H      3.555492    -0.496371     2.407008
H      4.848342    -1.559872     1.803963
