32
Energy = -1142.567701939 Hartree (EUMP2 CORRECTED)
O      1.440625     0.476667     0.785240
C      2.058288     1.677110     0.270619
H      3.133611     1.480226     0.212476
H      1.873070     2.515282     0.954999
C      0.095477     0.405264     0.250302
H     -0.006626    -0.560942    -0.260923
H     -0.630858     0.474692     1.065873
C      1.378866     1.911270    -1.066973
H      1.757254     1.198152    -1.812506
H      1.454329     2.924190    -1.466947
C     -0.070266     1.579937    -0.713776
H     -0.673515     1.321270    -1.591984
O     -0.674018     2.645145     0.022793
P     -1.355838     3.911065    -0.853865
O     -2.851432     3.883529    -0.672668
O     -0.685878     3.970953    -2.215648
O     -0.682877     5.106017     0.114592
C     -0.384122     6.360619    -0.492760
H     -1.221321     7.055736    -0.338791
H     -0.210651     6.231898    -1.570648
C      0.867640     6.921269     0.157644
H      1.114271     7.878443    -0.323326
O      0.640177     7.233577     1.552046
C      1.147286     6.125367     2.315805
H      1.286157     6.485289     3.340201
H      0.429244     5.297405     2.297853
C      2.441117     5.755139     1.599538
H      2.785532     4.742098     1.835318
H      3.229777     6.465199     1.877221
C      2.046464     5.922971     0.124167
H      1.703838     4.973722    -0.295574
H      2.873578     6.295712    -0.490237
