32
Energy = -1142.567494362 Hartree (EUMP2 CORRECTED)
O      0.872195     0.176826    -2.005379
C      1.997424     1.081547    -2.004732
H      2.489438     0.973559    -2.976141
H      2.683913     0.818802    -1.192494
C      0.079336     0.599877    -0.882001
H     -0.924487     0.189306    -1.029190
H      0.509681     0.237258     0.055989
C      1.376438     2.455236    -1.758178
H      2.038508     3.136545    -1.216301
H      1.091702     2.924054    -2.707868
C      0.113769     2.143808    -0.914943
H     -0.779884     2.529246    -1.417863
O      0.079668     2.779681     0.362658
P      1.252187     2.533553     1.548171
O      1.721102     3.906966     1.973833
O      2.175732     1.413588     1.135028
O      0.264685     1.923325     2.747609
C     -0.673990     2.806256     3.366703
H     -1.685654     2.452339     3.128868
H     -0.547476     3.831898     2.995253
C     -0.462486     2.788348     4.870750
H     -1.202718     3.456194     5.334742
O     -0.728328     1.474818     5.415921
C      0.542933     0.808417     5.532808
H      0.400885    -0.015344     6.240041
H      0.852892     0.421089     4.556319
C      1.488172     1.899200     6.024703
H      2.538633     1.673602     5.810750
H      1.371927     2.024561     7.108258
C      0.987151     3.142538     5.270167
H      1.582165     3.342133     4.374351
H      1.014797     4.039302     5.899468
