32
Energy = -1142.567977923 Hartree (EUMP2 CORRECTED)
O      1.456926     0.178529     0.125473
C      1.740560     1.582574    -0.082347
H      2.742229     1.640937    -0.519353
H      1.719242     2.120392     0.873140
C      0.026397    -0.002680     0.022583
H     -0.157711    -0.774879    -0.736781
H     -0.379471    -0.325764     0.986972
C      0.623941     2.069639    -0.989044
H      0.786818     1.719009    -2.017916
H      0.494763     3.154758    -0.975902
C     -0.576984     1.343725    -0.379166
H     -1.413407     1.233037    -1.078909
O     -1.035217     1.966645     0.821371
P     -1.631095     3.537236     0.811830
O     -0.469262     4.504470     0.837846
O     -2.791745     3.591960     1.774318
O     -2.237404     3.493036    -0.769947
C     -3.377193     4.307444    -1.039787
H     -3.059192     5.330778    -1.283462
H     -4.034723     4.333510    -0.159205
C     -4.130573     3.715967    -2.216715
H     -5.053015     4.293889    -2.364329
O     -3.390857     3.855261    -3.452453
C     -2.675340     2.626364    -3.650285
H     -2.397513     2.588927    -4.708557
H     -1.774265     2.613991    -3.026625
C     -3.669539     1.547282    -3.228302
H     -3.182615     0.603399    -2.957642
H     -4.365573     1.350566    -4.052430
C     -4.399550     2.203832    -2.042397
H     -3.989269     1.866402    -1.086461
H     -5.472792     1.984755    -2.053160
