32
Energy = -1142.566486430 Hartree (EUMP2 CORRECTED)
O      1.423929     0.260066     0.830979
C      1.978575     1.206866    -0.106667
H      2.853742     0.728776    -0.558120
H      2.284967     2.122357     0.416313
C      0.004354     0.535448     0.949570
H     -0.526781    -0.408350     0.771865
H     -0.220075     0.912152     1.952643
C      0.838341     1.494743    -1.070285
H      0.702890     0.647697    -1.756345
H      0.944960     2.423266    -1.638519
C     -0.338649     1.596487    -0.099165
H     -1.307830     1.400787    -0.564719
O     -0.313355     2.878891     0.524718
P     -1.521246     4.022265     0.263997
O     -1.247686     4.734116    -1.045278
O     -1.748116     4.705457     1.583843
O     -2.820335     2.977788    -0.016577
C     -3.371127     2.902953    -1.326890
H     -2.596442     2.684338    -2.072248
H     -3.843525     3.856074    -1.608214
C     -4.403383     1.792445    -1.304737
H     -4.861232     1.709033    -2.300751
O     -3.758762     0.516417    -1.056431
C     -4.009884     0.168469     0.315244
H     -3.859270    -0.912382     0.401585
H     -3.311022     0.701493     0.972213
C     -5.442583     0.627428     0.552704
H     -5.690398     0.726012     1.615504
H     -6.138357    -0.085849     0.094138
C     -5.458131     1.969438    -0.190994
H     -5.145789     2.776955     0.477831
H     -6.444257     2.213955    -0.601297
