32
Energy = -1142.574721961 Hartree (EUMP2 CORRECTED)
O      1.144706    -0.144887    -1.159379
C      1.914698     1.074062    -1.271708
H      2.696621     0.885567    -2.013899
H      2.371156     1.323112    -0.305789
C     -0.203818     0.218128    -0.779498
H     -0.886293    -0.224393    -1.517018
H     -0.427420    -0.176532     0.217304
C      0.898999     2.130535    -1.670578
H      0.624610     2.017845    -2.728206
H      1.228372     3.155782    -1.480158
C     -0.280580     1.743401    -0.775205
H     -1.240981     2.131793    -1.133667
O     -0.057221     2.174746     0.570701
P     -0.271725     3.823260     0.865510
O     -1.435915     4.286693     0.008063
O      1.069918     4.511287     0.881045
O     -0.755494     3.688291     2.449268
C     -2.145178     3.542999     2.750274
H     -2.257306     2.660600     3.393844
H     -2.727050     3.407708     1.829326
C     -2.651377     4.771566     3.487752
H     -3.732387     4.652521     3.649394
O     -2.074780     4.891343     4.802357
C     -0.821852     5.602456     4.665426
H     -0.703211     6.186825     5.584992
H     -0.003488     4.880946     4.578687
C     -0.930987     6.466061     3.394604
H     -0.123230     6.225375     2.699574
H     -0.880891     7.535829     3.629862
C     -2.300414     6.089845     2.794736
H     -2.265887     5.981861     1.706217
H     -3.056525     6.839616     3.057847
