32
Energy = -1142.562660556 Hartree (EUMP2 CORRECTED)
O     -0.782565    -0.447334     0.726555
C     -0.215672    -0.342163    -0.601190
H     -0.650242    -1.154252    -1.191330
H      0.872474    -0.462974    -0.554959
C     -0.503158     0.821968     1.340140
H     -1.186070     0.937689     2.185829
H      0.536738     0.866850     1.694647
C     -0.585867     1.058771    -1.082940
H     -1.563374     1.040201    -1.579611
H      0.147660     1.486874    -1.767224
C     -0.702339     1.867604     0.231593
H     -1.724792     2.259811     0.300971
O      0.098835     3.023208     0.446229
P      1.658486     3.284690    -0.105603
O      2.506454     3.706530     1.070896
O      1.581359     4.054389    -1.404025
O      2.065968     1.703402    -0.538391
C      3.218165     1.084680     0.033743
H      3.574068     1.658699     0.899560
H      2.928275     0.075653     0.359198
C      4.307912     0.969341    -1.018793
H      5.149611     0.402404    -0.593604
O      3.830342     0.187787    -2.140938
C      3.472600     1.121790    -3.178505
H      3.447884     0.555278    -4.115241
H      2.490373     1.560124    -2.969227
C      4.562460     2.182403    -3.109821
H      4.266523     3.123293    -3.585279
H      5.474641     1.807973    -3.591382
C      4.754872     2.331115    -1.594063
H      4.124370     3.138408    -1.214212
H      5.792247     2.556038    -1.321862
