32
Energy = -1142.565870118 Hartree (EUMP2 CORRECTED)
O      1.882287     0.719872    -0.972592
C      1.830686     1.977706    -1.685110
H      2.403158     1.836464    -2.608060
H      2.278038     2.781046    -1.088922
C      0.724597     0.676340    -0.105100
H      0.259660    -0.308557    -0.235521
H      1.029791     0.807890     0.939049
C      0.346620     2.230211    -1.885105
H     -0.048928     1.565008    -2.665412
H      0.096023     3.269389    -2.108467
C     -0.207268     1.821831    -0.517826
H     -1.262024     1.527460    -0.545947
O     -0.038418     2.878052     0.436143
P     -1.266900     4.009623     0.584101
O     -0.955719     4.805306     1.829238
O     -2.576350     3.323167     0.278213
O     -0.931961     4.997673    -0.752502
C     -0.335695     6.258977    -0.491015
H     -0.648647     6.909976    -1.320433
H     -0.701261     6.687707     0.449696
C      1.194972     6.188509    -0.429729
H      1.515690     5.834569     0.553435
O      1.736958     5.250680    -1.378802
C      1.615734     5.872475    -2.659957
H      2.370009     5.416363    -3.308592
H      0.620220     5.668588    -3.079266
C      1.833077     7.384154    -2.421721
H      1.033122     7.975434    -2.879937
H      2.781064     7.729284    -2.847635
C      1.827319     7.509077    -0.883169
H      1.272634     8.387185    -0.529393
H      2.849523     7.577399    -0.495971
