32
Energy = -1142.567971297 Hartree (EUMP2 CORRECTED)
O      0.262683    -0.376840    -0.304265
C      1.471021     0.063774     0.332012
H      2.153368    -0.791803     0.353861
H      1.267904     0.400146     1.359200
C     -0.427715     0.818553    -0.762306
H     -0.833038     0.594781    -1.753788
H     -1.246113     1.068368    -0.082742
C      1.927303     1.225569    -0.536862
H      2.331135     0.842739    -1.482488
H      2.661778     1.886634    -0.066878
C      0.607854     1.956706    -0.783490
H      0.605914     2.506586    -1.728802
O      0.419947     2.860127     0.316702
P     -0.804529     4.005744     0.173445
O     -1.183583     4.403038     1.574339
O     -1.777374     3.540510    -0.889632
O      0.051843     5.273753    -0.538588
C      1.463789     5.372908    -0.598750
H      1.940909     4.434096    -0.296401
H      1.805858     6.174757     0.078382
C      1.862384     5.711583    -2.025738
H      2.952479     5.857109    -2.057006
O      1.580769     4.625383    -2.924359
C      0.239225     4.792853    -3.455691
H      0.298543     4.515073    -4.514805
H     -0.451620     4.127021    -2.930223
C     -0.153093     6.264492    -3.236809
H     -0.992624     6.318316    -2.541989
H     -0.434683     6.756777    -4.175358
C      1.101507     6.901219    -2.617010
H      0.857559     7.652933    -1.858661
H      1.719850     7.373653    -3.390360
