32
Energy = -1142.561724929 Hartree (EUMP2 CORRECTED)
O      1.792148     0.136397    -1.298623
C      2.604710     1.282607    -0.994988
H      3.520643     1.187735    -1.586671
H      2.847027     1.301666     0.074697
C      0.443276     0.469753    -0.898935
H     -0.218217     0.072886    -1.678526
H      0.217314     0.017371     0.068286
C      1.713895     2.451336    -1.391613
H      2.005778     3.416637    -0.967719
H      1.674128     2.522082    -2.487067
C      0.352949     2.012451    -0.828629
H     -0.478926     2.383243    -1.439155
O      0.139664     2.604944     0.453866
P      0.599513     2.077622     1.983677
O      1.307366     3.252025     2.623116
O      1.161239     0.679600     1.932037
O     -0.922872     1.956757     2.660016
C     -1.660458     3.160530     2.882185
H     -2.549306     3.143174     2.237698
H     -1.050360     4.041347     2.641393
C     -2.082245     3.228025     4.339851
H     -2.660626     4.150540     4.493619
O     -2.983444     2.145528     4.671117
C     -2.181381     1.101888     5.255317
H     -2.867713     0.451764     5.807922
H     -1.673510     0.535469     4.467491
C     -1.184172     1.848937     6.134838
H     -0.284081     1.260110     6.342553
H     -1.658748     2.109154     7.088982
C     -0.883989     3.111077     5.307789
H      0.045660     3.014274     4.739638
H     -0.800862     4.001550     5.941158
