32
Energy = -1142.560677137 Hartree (EUMP2 CORRECTED)
O      0.828587    -0.675237     0.385416
C     -0.152453    -0.713940    -0.677611
H     -0.422472    -1.765109    -0.820693
H      0.280150    -0.313671    -1.602875
C      0.674442     0.580527     1.089063
H      0.481514     0.350794     2.145641
H      1.593532     1.168872     0.999693
C     -1.285819     0.172695    -0.192742
H     -1.879849    -0.347687     0.570960
H     -1.935278     0.533718    -0.994847
C     -0.496811     1.318106     0.446996
H     -1.083261     1.902545     1.166919
O      0.043745     2.186471    -0.550663
P     -1.063357     3.240624    -1.289143
O     -1.926245     3.874458    -0.227595
O     -1.624225     2.522524    -2.500746
O      0.065624     4.360237    -1.791152
C      1.254137     3.849863    -2.398429
H      1.947710     3.482354    -1.633449
H      0.993845     3.019764    -3.069515
C      1.909107     4.974474    -3.184449
H      1.204751     5.820980    -3.227099
O      3.121891     5.408137    -2.530497
C      3.763522     6.270960    -3.471980
H      3.365179     7.292097    -3.367406
H      4.829010     6.283779    -3.225237
C      3.449545     5.698965    -4.876683
H      4.342345     5.287842    -5.359063
H      3.048898     6.478709    -5.533835
C      2.398793     4.613256    -4.585243
H      2.861334     3.619870    -4.549454
H      1.582098     4.583388    -5.314013
