32
Energy = -1142.560245368 Hartree (EUMP2 CORRECTED)
O      1.841110     0.514301     0.611952
C      0.912261    -0.024393    -0.360099
H      0.785709    -1.085317    -0.122547
H      1.324661     0.082578    -1.370614
C      1.487732     1.896030     0.850625
H      1.268338     2.009469     1.921234
H      2.329831     2.541093     0.577910
C     -0.344013     0.814263    -0.204835
H     -0.896361     0.516964     0.696974
H     -1.002741     0.785060    -1.077000
C      0.265203     2.204144    -0.008526
H     -0.424022     2.920096     0.456545
O      0.740522     2.733819    -1.249482
P     -0.462350     3.280869    -2.319432
O     -1.428408     4.113089    -1.498081
O     -0.917538     2.127651    -3.181128
O      0.495229     4.299372    -3.223170
C      1.884715     4.519694    -3.014436
H      2.347229     3.718814    -2.428341
H      2.328308     4.524632    -4.019402
C      2.144979     5.882399    -2.349996
H      3.121082     6.238148    -2.716234
O      1.197769     6.885914    -2.726727
C      0.287630     7.033084    -1.615800
H     -0.207831     8.000124    -1.747755
H     -0.450041     6.221747    -1.616169
C      1.204204     6.957737    -0.397711
H      0.659437     6.748751     0.530032
H      1.748997     7.903347    -0.282122
C      2.151609     5.817783    -0.804123
H      1.746976     4.855943    -0.474546
H      3.162794     5.928655    -0.396756
