32
Energy = -1142.572470188 Hartree (EUMP2 CORRECTED)
O      1.169864     0.631943     1.425723
C      1.981545     1.722189     0.937594
H      3.024417     1.398569     1.014760
H      1.828636     2.611776     1.561950
C     -0.114705     0.704461     0.760229
H     -0.312563    -0.281477     0.321217
H     -0.897492     0.951857     1.484704
C      1.492829     1.958321    -0.481231
H      1.877343     1.172195    -1.145554
H      1.723599     2.939046    -0.904721
C     -0.017060     1.801802    -0.302490
H     -0.535062     1.522564    -1.229172
O     -0.590585     2.991661     0.249410
P     -1.125118     4.125816    -0.890503
O     -2.496433     3.713415    -1.359115
O      0.026365     4.415423    -1.837136
O     -1.255455     5.377674     0.204478
C     -0.485263     6.569046     0.019523
H     -1.183893     7.409032    -0.091978
H      0.129812     6.479025    -0.884561
C      0.410675     6.822933     1.219258
H      1.064626     7.673696     0.981560
O     -0.325350     7.224905     2.390664
C     -0.761745     6.017682     3.053238
H     -0.825267     6.260359     4.119665
H     -1.751687     5.735072     2.680482
C      0.279773     4.931752     2.725679
H     -0.204214     4.042555     2.317097
H      0.853144     4.647124     3.616010
C      1.187492     5.579722     1.660638
H      1.379650     4.907299     0.819460
H      2.146525     5.884700     2.096663
