32
Energy = -1142.562463526 Hartree (EUMP2 CORRECTED)
O      0.947081     0.998397    -1.559300
C      1.330209     2.344771    -1.218565
H      1.973631     2.711222    -2.025202
H      1.880044     2.343126    -0.269039
C     -0.358617     0.759327    -0.996159
H     -1.050544     0.556017    -1.827361
H     -0.334416    -0.104891    -0.334342
C      0.006927     3.084848    -1.078698
H     -0.433654     3.263217    -2.069396
H      0.075171     4.025402    -0.525180
C     -0.807188     2.047811    -0.299110
H     -1.892876     2.178352    -0.406168
O     -0.488859     2.244519     1.076312
P      0.037704     1.158656     2.230783
O     -1.052645     0.149543     2.533774
O      0.716198     2.004955     3.276534
O      1.205210     0.360960     1.321844
C      1.303032    -1.062718     1.353146
H      0.394993    -1.488270     1.801416
H      1.398908    -1.404406     0.313187
C      2.530722    -1.524372     2.121934
H      2.486707    -2.620282     2.197853
O      3.754716    -1.239705     1.417214
C      4.127264     0.116015     1.751883
H      5.220162     0.156711     1.683007
H      3.687468     0.802604     1.020788
C      3.581985     0.388518     3.165301
H      2.967698     1.291934     3.188208
H      4.395001     0.492859     3.893757
C      2.708849    -0.842794     3.481017
H      1.756152    -0.556877     3.937203
H      3.229963    -1.530096     4.158510
