32
Energy = -1142.566285285 Hartree (EUMP2 CORRECTED)
O      1.757261    -0.402908    -0.829893
C      2.531283     0.805222    -0.959947
H      3.361803     0.582460    -1.636258
H      2.917122     1.119164     0.019108
C      0.542159     0.026934    -0.183013
H     -0.218814    -0.727336    -0.403820
H      0.680582     0.100627     0.900230
C      1.527859     1.821321    -1.489418
H      1.784176     2.854398    -1.240737
H      1.424751     1.713135    -2.576281
C      0.210989     1.416723    -0.782428
H     -0.606319     1.338159    -1.507621
O     -0.254245     2.404478     0.142135
P      0.467683     2.672740     1.643476
O      1.853852     3.237407     1.385529
O      0.218114     1.520149     2.582857
O     -0.569815     3.886769     2.093678
C     -0.491990     5.137347     1.403959
H     -1.446140     5.299432     0.886564
H      0.324463     5.127375     0.669373
C     -0.249289     6.254359     2.404680
H     -0.197931     7.205799     1.855909
O     -1.365088     6.392019     3.314019
C     -1.035692     5.631008     4.491941
H     -1.685517     5.998601     5.292917
H     -1.219821     4.566469     4.313327
C      0.447676     5.910667     4.714621
H      0.937881     5.124190     5.298458
H      0.567244     6.863684     5.244213
C      0.999036     6.006910     3.280344
H      1.497710     5.083648     2.971832
H      1.717577     6.828120     3.178865
