32
Energy = -1142.562813102 Hartree (EUMP2 CORRECTED)
O      0.721051    -0.580367     0.702126
C      1.101780    -0.115856    -0.609006
H      1.351005    -1.002096    -1.200383
H      1.974196     0.546417    -0.532939
C      0.066718     0.546835     1.321671
H     -0.675593     0.141047     2.016711
H      0.797164     1.161203     1.861128
C     -0.134988     0.636520    -1.077661
H     -0.923135    -0.095661    -1.298158
H      0.010356     1.293722    -1.934440
C     -0.544917     1.407355     0.184955
H     -1.637058     1.453923     0.266751
O     -0.139417     2.768975     0.341479
P      1.184809     3.594416    -0.250082
O      2.449694     3.055288     0.391014
O      0.786703     5.046637    -0.230802
O      1.193293     3.064857    -1.851415
C      2.414377     2.637388    -2.455010
H      2.235358     1.655598    -2.918497
H      3.196373     2.539526    -1.690836
C      2.850390     3.607918    -3.538434
H      3.819888     3.266215    -3.928614
O      1.955051     3.595550    -4.667450
C      0.894131     4.539726    -4.390772
H      0.592118     4.948533    -5.361714
H      0.049138     4.011816    -3.936602
C      1.469062     5.591947    -3.426338
H      0.871724     5.661111    -2.514014
H      1.516774     6.581693    -3.895802
C      2.878209     5.069633    -3.085792
H      3.100396     5.172583    -2.018948
H      3.645400     5.605857    -3.657455
