32
Energy = -1142.562919532 Hartree (EUMP2 CORRECTED)
O      1.124989    -0.205848     0.839817
C      1.870004     0.718883     0.021950
H      2.772096     0.194543    -0.307262
H      2.146902     1.607644     0.603885
C     -0.259469     0.212334     0.803878
H     -0.862439    -0.680406     0.598436
H     -0.549469     0.646192     1.766491
C      0.905037     1.088679    -1.091847
H      0.810539     0.250313    -1.796284
H      1.170160     2.003128    -1.629650
C     -0.391941     1.275126    -0.296900
H     -1.303264     1.117524    -0.887276
O     -0.407823     2.542949     0.338806
P     -0.931864     3.960279    -0.418138
O     -0.007454     5.056783     0.029573
O     -2.441497     3.982251    -0.317596
O     -0.565147     3.703739    -2.046107
C     -1.329864     2.834662    -2.877322
H     -2.310110     2.628505    -2.428774
H     -0.778096     1.893461    -3.027945
C     -1.531998     3.498142    -4.235834
H     -1.807634     2.724573    -4.965894
O     -2.618544     4.434400    -4.242198
C     -2.106262     5.667762    -3.685607
H     -2.704562     6.470896    -4.128183
H     -2.245917     5.661397    -2.600537
C     -0.613545     5.724554    -4.069519
H     -0.002026     5.895250    -3.180968
H     -0.415462     6.521136    -4.796357
C     -0.323862     4.334253    -4.673638
H      0.622390     3.917356    -4.314665
H     -0.298517     4.380529    -5.768988
