32
Energy = -1142.564454996 Hartree (EUMP2 CORRECTED)
O      1.723408     0.481225     0.840364
C      2.198814     1.578475     0.035799
H      3.176055     1.282497    -0.359165
H      2.304682     2.482603     0.649560
C      0.272565     0.520651     0.833601
H     -0.079801    -0.474207     0.532855
H     -0.098870     0.765799     1.833701
C      1.115835     1.765878    -1.014749
H      1.176569     0.963684    -1.762290
H      1.128437     2.740138    -1.511185
C     -0.144039     1.608750    -0.163550
H     -1.022860     1.311877    -0.741786
O     -0.350461     2.840950     0.518367
P     -1.882510     3.470103     0.833296
O     -2.228156     4.475386    -0.243332
O     -1.946046     3.744179     2.311903
O     -2.798358     2.081670     0.532874
C     -3.630431     2.051326    -0.622285
H     -3.030460     2.049992    -1.542873
H     -4.286239     2.932359    -0.654445
C     -4.451604     0.779541    -0.544542
H     -5.116354     0.731147    -1.418741
O     -3.591005    -0.383995    -0.637539
C     -3.436945    -0.905763     0.693084
H     -3.108669    -1.945076     0.590674
H     -2.685670    -0.323595     1.239897
C     -4.817718    -0.738202     1.313887
H     -4.803707    -0.788278     2.408369
H     -5.489007    -1.518407     0.934657
C     -5.224080     0.644390     0.785934
H     -4.894815     1.426315     1.476656
H     -6.305650     0.738107     0.638145
