32
Energy = -1142.547091780 Hartree (EUMP2 CORRECTED)
O      1.697926     0.262784     0.807975
C      2.016707     1.272841    -0.170781
H      2.965349     0.979612    -0.629892
H      2.119273     2.255099     0.307581
C      0.267081     0.302241     1.007703
H     -0.094935    -0.732431     0.967811
H      0.029754     0.745335     1.980697
C      0.823471     1.263281    -1.112060
H      0.855774     0.371039    -1.752964
H      0.750374     2.165191    -1.726884
C     -0.331900     1.174841    -0.106237
H     -1.241555     0.718652    -0.510452
O     -0.591504     2.444865     0.459252
P     -1.321660     3.815057    -0.211943
O     -0.250403     4.864994    -0.356249
O     -2.615834     4.008442     0.541473
O     -1.737647     3.419520    -1.802621
C     -2.098050     2.199750    -2.418510
H     -2.725011     1.576252    -1.764953
H     -1.205024     1.631559    -2.719515
C     -2.910138     2.529598    -3.665118
H     -2.980021     1.625885    -4.286605
O     -4.262753     2.890966    -3.353110
C     -4.251113     4.293647    -2.988701
H     -5.240758     4.680399    -3.253482
H     -4.088704     4.389987    -1.911171
C     -3.102065     4.935931    -3.790761
H     -2.437329     5.488209    -3.123350
H     -3.481375     5.620026    -4.558953
C     -2.361556     3.741026    -4.426616
H     -1.275384     3.832165    -4.327893
H     -2.614459     3.642396    -5.489064
