32
Energy = -1142.566682443 Hartree (EUMP2 CORRECTED)
O      0.272322    -0.733465    -0.208235
C      0.352793    -0.318869    -1.597294
H     -0.531898    -0.714344    -2.115200
H      1.245830    -0.772414    -2.044424
C      0.202477     0.456867     0.604640
H     -0.431409     0.232117     1.467830
H      1.202861     0.759643     0.942097
C      0.389056     1.207408    -1.608203
H     -0.064201     1.650816    -2.496904
H      1.411251     1.585377    -1.533532
C     -0.364727     1.533850    -0.314847
H     -1.441619     1.365516    -0.469102
O     -0.223518     2.812970     0.291970
P      0.653758     4.079879    -0.385591
O      0.386324     5.259509     0.513116
O      0.520288     4.065885    -1.886361
O      2.209856     3.509890    -0.060367
C      2.614390     3.559392     1.306684
H      1.883118     3.044788     1.944204
H      2.688871     4.604018     1.643300
C      3.960738     2.872672     1.420290
H      4.309073     2.951681     2.460158
O      3.834134     1.452752     1.154984
C      4.348917     1.213614    -0.163118
H      4.592561     0.148265    -0.222282
H      3.590860     1.466740    -0.914615
C      5.549112     2.146415    -0.261897
H      5.873398     2.321804    -1.294020
H      6.389540     1.725322     0.303427
C      5.004337     3.409777     0.416942
H      4.503686     4.049352    -0.315908
H      5.785612     3.993342     0.916570
