32
Energy = -1142.565170531 Hartree (EUMP2 CORRECTED)
O      0.060628    -0.697066     0.395899
C      0.745966    -0.291213    -0.808546
H      0.729124    -1.146744    -1.490128
H      1.778841    -0.003911    -0.573946
C     -0.157800     0.537225     1.100255
H     -0.993339     0.373767     1.787868
H      0.742581     0.824852     1.657225
C     -0.056554     0.912902    -1.284306
H     -0.983520     0.560783    -1.754916
H      0.475086     1.568122    -1.974425
C     -0.426652     1.627327     0.031614
H     -1.482318     1.919889     0.020264
O      0.248505     2.837994     0.406756
P      1.794911     3.291227    -0.001043
O      2.769174     2.177998     0.330691
O      1.966133     4.714555     0.470197
O      1.603967     3.294337    -1.678488
C      2.767781     3.614813    -2.441837
H      3.070970     2.722812    -3.006843
H      3.604368     3.916789    -1.795616
C      2.426077     4.743950    -3.397165
H      3.306863     4.962235    -4.018952
O      1.389706     4.323317    -4.319137
C      0.149722     4.871277    -3.837679
H     -0.545141     4.868938    -4.684097
H     -0.242874     4.250203    -3.023925
C      0.529303     6.259197    -3.337709
H     -0.206064     6.676449    -2.640823
H      0.629980     6.941060    -4.191466
C      1.888325     5.996333    -2.671914
H      1.771581     5.789543    -1.602767
H      2.573793     6.844278    -2.783119
