32
Energy = -1142.574451849 Hartree (EUMP2 CORRECTED)
O      1.457982     0.297073     0.133094
C      1.765754     1.486779    -0.621903
H      2.581034     1.228661    -1.305901
H      2.090907     2.289409     0.053506
C      0.051789     0.346155     0.497464
H     -0.415696    -0.578771     0.136482
H     -0.052617     0.414121     1.583435
C      0.456349     1.853718    -1.302406
H      0.267328     1.172189    -2.143185
H      0.386529     2.887541    -1.651352
C     -0.535184     1.587867    -0.173941
H     -1.560298     1.417737    -0.517833
O     -0.481468     2.704292     0.721572
P     -1.945959     3.154220     1.420697
O     -1.608963     4.209279     2.441810
O     -2.779031     1.917560     1.651566
O     -2.628834     3.900456     0.070168
C     -2.006331     5.111664    -0.353962
H     -0.913962     5.028835    -0.292453
H     -2.328176     5.948025     0.285750
C     -2.411867     5.362384    -1.793905
H     -1.998883     6.329014    -2.115663
O     -1.815100     4.371279    -2.667358
C     -2.834993     3.408087    -2.975320
H     -2.511795     2.878722    -3.877403
H     -2.949506     2.703161    -2.142987
C     -4.089113     4.254031    -3.156767
H     -5.014090     3.670698    -3.085331
H     -4.060071     4.747421    -4.135928
C     -3.938106     5.275531    -2.020583
H     -4.419669     4.906125    -1.110667
H     -4.366700     6.251956    -2.272814
