32
Energy = -1142.573141641 Hartree (EUMP2 CORRECTED)
O      0.350285    -0.242916     0.055363
C      1.422195     0.697777    -0.179391
H      2.235278     0.136555    -0.649943
H      1.767061     1.121454     0.772833
C     -0.889975     0.503085     0.062392
H     -1.577704     0.002189    -0.631239
H     -1.316017     0.502621     1.071453
C      0.795282     1.769383    -1.052624
H      0.664645     1.392371    -2.076109
H      1.326334     2.722937    -1.082546
C     -0.565088     1.935349    -0.376425
H     -1.321269     2.355920    -1.051177
O     -0.450132     2.729686     0.807286
P     -0.506895     4.415572     0.622230
O     -0.183270     4.747632    -0.813065
O      0.176327     4.975608     1.842513
O     -2.165069     4.623817     0.779500
C     -2.710696     4.517263     2.095869
H     -2.768875     5.514678     2.549182
H     -2.078396     3.883333     2.733347
C     -4.096401     3.905625     1.993270
H     -4.510052     3.802824     3.006249
O     -5.010573     4.777272     1.288805
C     -5.032786     4.337648    -0.080381
H     -5.940396     4.753111    -0.529884
H     -4.145342     4.706328    -0.606314
C     -5.028439     2.815337     0.024139
H     -4.681864     2.327705    -0.894198
H     -6.042268     2.459559     0.244051
C     -4.091229     2.568386     1.218255
H     -3.074595     2.349009     0.884276
H     -4.434405     1.739231     1.847121
