32
Energy = -1142.561650923 Hartree (EUMP2 CORRECTED)
O      1.665385     0.207846    -0.009153
C      2.071929     1.426460    -0.668239
H      2.937119     1.176091    -1.290330
H      2.357834     2.181303     0.076263
C      0.245546     0.309041     0.262717
H     -0.230290    -0.591122    -0.146345
H      0.075970     0.362314     1.342946
C      0.840062     1.871338    -1.437276
H      0.702387     1.240418    -2.325981
H      0.838224     2.925789    -1.722442
C     -0.260300     1.584633    -0.413166
H     -1.254346     1.466102    -0.858499
O     -0.302501     2.613925     0.582908
P     -1.341003     3.900467     0.331639
O     -1.391625     4.682209     1.616238
O     -2.561829     3.419107    -0.427502
O     -0.366268     4.727430    -0.783792
C     -1.067709     5.506460    -1.753487
H     -1.608889     4.856411    -2.451298
H     -1.799709     6.161642    -1.261050
C     -0.031543     6.329966    -2.508349
H      0.970120     6.022254    -2.166219
O     -0.145173     6.075213    -3.928090
C      0.668747     7.065874    -4.564392
H      1.696102     6.685511    -4.670641
H      0.252719     7.231288    -5.562551
C      0.634153     8.320502    -3.656391
H      0.173714     9.179263    -4.156002
H      1.647992     8.614109    -3.362781
C     -0.178204     7.846909    -2.441693
H     -1.238866     8.098336    -2.556381
H      0.172104     8.259503    -1.489624
