32
Energy = -1142.570623046 Hartree (EUMP2 CORRECTED)
O      1.160452    -0.237290     0.315311
C      1.977594     0.771290    -0.315447
H      2.829338     0.252137    -0.765922
H      2.336607     1.490442     0.432820
C     -0.199654     0.260819     0.348840
H     -0.842890    -0.519707    -0.075905
H     -0.496842     0.467361     1.382113
C      1.045293     1.448384    -1.305394
H      0.882857     0.797113    -2.175105
H      1.370407     2.438946    -1.632217
C     -0.235805     1.550169    -0.474887
H     -1.147229     1.643701    -1.075839
O     -0.149008     2.652130     0.437650
P     -0.814302     4.106412    -0.040606
O     -0.760936     5.029052     1.148859
O     -2.066948     3.847999    -0.854263
O      0.409344     4.539167    -1.130797
C      0.043038     5.341041    -2.254218
H     -1.022948     5.596443    -2.230388
H      0.234109     4.776320    -3.177258
C      0.891406     6.604204    -2.227628
H      1.944464     6.347051    -2.391408
O      0.508081     7.458402    -3.342449
C     -0.346754     8.478344    -2.805686
H     -0.363226     9.296423    -3.532437
H     -1.370519     8.095326    -2.673901
C      0.284545     8.821601    -1.464693
H     -0.398830     9.347498    -0.788374
H      1.164775     9.454443    -1.631067
C      0.686702     7.433912    -0.944242
H     -0.093057     6.986438    -0.318833
H      1.593205     7.462297    -0.332142
