32
Energy = -1142.570262609 Hartree (EUMP2 CORRECTED)
O      1.326485     0.392114     0.724681
C      1.849895     1.289569    -0.278926
H      2.631764     0.741645    -0.813923
H      2.280793     2.180334     0.197125
C     -0.029305     0.812693     1.012782
H     -0.667271    -0.078018     0.955910
H     -0.076351     1.239400     2.019875
C      0.638105     1.657301    -1.115269
H      0.352366     0.810301    -1.753961
H      0.747580     2.551957    -1.731405
C     -0.416523     1.869591    -0.028533
H     -1.440799     1.740953    -0.394234
O     -0.265599     3.150300     0.594316
P     -0.853902     4.509324    -0.218071
O     -1.282043     4.085913    -1.608769
O      0.096193     5.631075     0.095966
O     -2.233906     4.780640     0.707207
C     -3.516970     4.441594     0.189604
H     -3.419772     3.890172    -0.751520
H     -4.080288     5.369834    -0.005373
C     -4.265275     3.615564     1.220623
H     -5.275629     3.404317     0.839352
O     -3.628961     2.327659     1.397438
C     -2.887696     2.382566     2.630210
H     -2.719766     1.347147     2.944288
H     -1.928694     2.887103     2.465467
C     -3.793611     3.179305     3.559498
H     -3.266709     3.577252     4.434297
H     -4.619035     2.544865     3.905597
C     -4.300688     4.277441     2.616413
H     -3.617429     5.131924     2.629907
H     -5.306156     4.629287     2.874335
