32
Energy = -1142.569717478 Hartree (EUMP2 CORRECTED)
O      1.761243     0.638503     1.236249
C      2.127440     1.554396     0.181249
H      3.146984     1.297194    -0.122310
H      2.097192     2.588287     0.546673
C      0.325925     0.470952     1.193568
H      0.120098    -0.605644     1.127937
H     -0.124643     0.880203     2.103596
C      1.073001     1.340051    -0.890511
H      1.256336     0.399116    -1.427635
H      1.012004     2.165577    -1.602067
C     -0.193012     1.223936    -0.034238
H     -1.011260     0.700411    -0.541439
O     -0.625076     2.504330     0.418820
P     -1.270933     3.650489    -0.627817
O     -0.176490     4.613576    -1.039263
O     -2.593308     4.083427    -0.049303
O     -1.575582     2.641896    -1.946326
C     -1.035452     2.948533    -3.231851
H     -0.583935     2.029158    -3.630507
H     -0.267270     3.727902    -3.139240
C     -2.123380     3.408629    -4.187130
H     -1.642446     3.697928    -5.132620
O     -3.032674     2.344495    -4.528534
C     -4.063808     2.317171    -3.514158
H     -4.971343     1.960851    -4.014351
H     -3.777988     1.612388    -2.726420
C     -4.181781     3.746613    -2.956687
H     -4.066070     3.755560    -1.870086
H     -5.147274     4.197555    -3.214760
C     -3.018249     4.512417    -3.617727
H     -2.487784     5.149604    -2.902985
H     -3.379813     5.138937    -4.441999
