32
Energy = -1142.566842833 Hartree (EUMP2 CORRECTED)
O      1.747470     0.506734     0.183980
C      2.035362     1.677135    -0.623340
H      2.939274     1.448213    -1.197595
H      2.218980     2.545932     0.018129
C      0.311924     0.401462     0.329527
H      0.000506    -0.569771    -0.079419
H      0.043003     0.460213     1.388971
C      0.787671     1.879915    -1.466005
H      0.756675     1.152805    -2.289795
H      0.656913     2.887285    -1.866351
C     -0.305423     1.561008    -0.447619
H     -1.262343     1.295171    -0.912428
O     -0.472174     2.643057     0.470922
P     -1.502674     3.906400     0.022868
O     -2.707333     3.855019     0.930481
O     -1.582268     3.964772    -1.486112
O     -0.515468     5.179342     0.482577
C      0.417836     5.099850     1.552150
H      0.682634     4.059829     1.766412
H     -0.014792     5.555725     2.459236
C      1.660746     5.867783     1.134729
H      2.365086     5.890719     1.978741
O      2.346370     5.174798     0.067675
C      1.952360     5.803524    -1.166591
H      2.702864     5.525475    -1.913697
H      0.961545     5.449185    -1.472281
C      1.935908     7.288397    -0.821560
H      1.343871     7.882276    -1.526850
H      2.962158     7.675416    -0.812674
C      1.341643     7.282132     0.595924
H      0.257947     7.423147     0.556539
H      1.773226     8.063232     1.232118
