32
Energy = -1142.564159569 Hartree (EUMP2 CORRECTED)
O      1.342473     0.134446     0.608519
C      2.053689     1.307016     0.153455
H      3.062683     0.978340    -0.112973
H      2.107246     2.052164     0.958083
C     -0.068373     0.371819     0.391994
H     -0.470626    -0.506404    -0.128636
H     -0.576522     0.498430     1.354222
C      1.219553     1.820391    -1.006226
H      1.358182     1.173056    -1.882761
H      1.388820     2.861840    -1.288974
C     -0.190693     1.651659    -0.442546
H     -0.945196     1.575188    -1.233512
O     -0.494827     2.727388     0.456366
P     -1.242452     4.083897    -0.204692
O     -0.664267     4.323150    -1.580498
O     -1.302985     5.113549     0.892768
O     -2.814800     3.509369    -0.426051
C     -3.311013     2.219759    -0.117755
H     -2.653326     1.688897     0.580747
H     -3.404862     1.629824    -1.047142
C     -4.686228     2.350911     0.523924
H     -5.168888     1.363176     0.512020
O     -4.608115     2.727823     1.904920
C     -4.482320     4.172866     1.950402
H     -4.957607     4.483974     2.886891
H     -3.425951     4.456597     1.953943
C     -5.194604     4.707469     0.692571
H     -4.516252     5.352282     0.130334
H     -6.095058     5.278771     0.947701
C     -5.547094     3.443838    -0.118145
H     -5.332877     3.563412    -1.185010
H     -6.605809     3.184574     0.002651
