32
Energy = -1142.563013733 Hartree (EUMP2 CORRECTED)
O      0.456961     0.606232    -1.534867
C      1.493519     1.611319    -1.517665
H      2.031443     1.525033    -2.467869
H      2.180078     1.441373    -0.681692
C     -0.641845     1.082293    -0.733823
H     -1.540315     1.056680    -1.367443
H     -0.787791     0.434795     0.131053
C      0.742892     2.923106    -1.342109
H      1.363119     3.735403    -0.953425
H      0.281697     3.223004    -2.293453
C     -0.343100     2.535588    -0.325452
H     -1.242256     3.153394    -0.434373
O      0.080867     2.787271     1.012080
P      1.208761     1.997101     1.972461
O      0.678139     2.041140     3.383876
O      2.584249     2.477588     1.563135
O      1.105898     0.432033     1.381816
C      0.589356    -0.615816     2.205044
H     -0.263074    -1.080961     1.687690
H      0.257083    -0.205888     3.167407
C      1.665421    -1.666891     2.421737
H      1.303073    -2.388229     3.167628
O      1.923039    -2.437880     1.234161
C      2.860544    -1.678960     0.432313
H      3.445043    -2.418272    -0.126809
H      2.304814    -1.044214    -0.264820
C      3.701118    -0.840096     1.414367
H      3.674037     0.220038     1.150370
H      4.745893    -1.173404     1.432622
C      3.024350    -1.061424     2.782837
H      2.927351    -0.129831     3.349367
H      3.587679    -1.783144     3.386709
