32
Energy = -1142.572677419 Hartree (EUMP2 CORRECTED)
O      0.439432    -0.373192     0.876786
C      1.369163     0.222611    -0.056480
H      2.077965    -0.561577    -0.340504
H      1.907908     1.048133     0.426392
C     -0.831563     0.307813     0.735728
H     -1.592780    -0.452657     0.517035
H     -1.079409     0.825377     1.667855
C      0.499065     0.736665    -1.190393
H      0.168778    -0.096855    -1.825290
H      0.960470     1.506955    -1.812784
C     -0.682906     1.308625    -0.408282
H     -1.589282     1.402200    -1.015876
O     -0.333762     2.567432     0.170775
P     -0.477747     3.948293    -0.792045
O     -1.300085     4.947145    -0.009927
O     -0.756546     3.525625    -2.213279
O      1.120668     4.439269    -0.743869
C      1.640692     4.923965     0.496629
H      2.422438     4.231316     0.835579
H      0.849201     4.981717     1.255812
C      2.234419     6.306171     0.286865
H      2.646422     6.658030     1.243703
O      3.357566     6.254879    -0.624259
C      2.851857     6.602199    -1.926861
H      3.716556     6.898168    -2.529986
H      2.353301     5.736958    -2.376900
C      1.865097     7.731963    -1.651947
H      1.129684     7.852913    -2.454869
H      2.411254     8.675970    -1.534092
C      1.221091     7.299640    -0.323452
H      0.259810     6.801826    -0.479983
H      1.054071     8.152412     0.344237
