32
Energy = -1142.563714415 Hartree (EUMP2 CORRECTED)
O      1.622310     0.354223    -1.591854
C      2.528678     1.415298    -1.240503
H      3.360207     1.367804    -1.950751
H      2.889143     1.276500    -0.214726
C      0.369874     0.666598    -0.945200
H     -0.420506     0.326119    -1.623897
H      0.299993     0.148200     0.013012
C      1.662209     2.661394    -1.366622
H      2.040509     3.540221    -0.835949
H      1.527388     2.903999    -2.429120
C      0.329418     2.203361    -0.748083
H     -0.526107     2.641018    -1.275673
O      0.197808     2.690820     0.590381
P      0.733281     1.991469     2.021697
O      1.174852     3.152238     2.883268
O      1.568750     0.766622     1.746017
O     -0.733789     1.441206     2.609769
C     -1.707238     2.412989     2.997577
H     -2.569885     2.324857     2.323721
H     -1.292671     3.427704     2.930982
C     -2.142630     2.142172     4.427258
H     -2.904117     2.884482     4.707231
O     -2.796255     0.855619     4.535314
C     -1.798000    -0.081366     4.981438
H     -2.336942    -0.943659     5.387648
H     -1.170506    -0.388748     4.137992
C     -0.995089     0.698775     6.016821
H      0.004946     0.280770     6.175961
H     -1.530525     0.696884     6.974261
C     -0.953295     2.112769     5.412649
H     -0.019416     2.297863     4.874110
H     -1.058373     2.887201     6.180902
