32
Energy = -1142.568770615 Hartree (EUMP2 CORRECTED)
O      1.175498     0.621778     1.314381
C      1.828442     1.044692     0.095129
H      2.582747     0.287521    -0.142164
H      2.323311     2.011312     0.257572
C     -0.208132     1.045847     1.257847
H     -0.839108     0.149130     1.324374
H     -0.421430     1.712437     2.099108
C      0.713409     1.170401    -0.928611
H      0.415118     0.176691    -1.290444
H      0.928755     1.824171    -1.777390
C     -0.398664     1.771431    -0.070709
H     -1.402314     1.617559    -0.487666
O     -0.158578     3.161413     0.160829
P     -0.824545     4.224899    -0.986641
O     -2.261722     4.509089    -0.627089
O     -0.393043     3.724952    -2.349448
O      0.059893     5.560302    -0.538351
C      1.370241     5.503944     0.017822
H      2.045917     6.055196    -0.649900
H      1.718871     4.468372     0.112173
C      1.366079     6.170693     1.384658
H      2.388316     6.135708     1.789614
O      1.041846     7.575500     1.259571
C     -0.355159     7.709786     1.584663
H     -0.522990     8.766621     1.815957
H     -0.970370     7.402639     0.731580
C     -0.543010     6.768650     2.767447
H     -1.590631     6.490693     2.925829
H     -0.160414     7.243061     3.679836
C      0.327105     5.570376     2.358475
H     -0.270308     4.811269     1.849174
H      0.814997     5.096487     3.218091
