32
Energy = -1142.562277712 Hartree (EUMP2 CORRECTED)
O      2.050655     0.875393     0.144079
C      1.424936     0.434788    -1.086652
H      1.766198    -0.588813    -1.274659
H      1.749170     1.082822    -1.910773
C      1.091592     1.660843     0.890448
H      0.831072     1.114325     1.808489
H      1.541110     2.624347     1.149291
C     -0.071572     0.565790    -0.855099
H     -0.449040    -0.286178    -0.272655
H     -0.656186     0.687080    -1.771123
C     -0.120117     1.841452    -0.012036
H     -1.053365     1.964574     0.554198
O      0.125275     2.990139    -0.820455
P     -1.219274     3.626265    -1.657986
O     -2.202389     4.170295    -0.655622
O     -1.583760     2.625925    -2.737924
O     -0.376253     4.897751    -2.314041
C      0.727209     4.554015    -3.147452
H      1.104613     3.563886    -2.869159
H      0.399606     4.499349    -4.195982
C      1.859717     5.600684    -3.017931
H      1.815972     6.323207    -3.840126
O      1.797120     6.384652    -1.825513
C      2.239543     5.526783    -0.752526
H      2.721063     6.179085    -0.016377
H      1.372434     5.030929    -0.306566
C      3.203232     4.500468    -1.390842
H      2.818618     3.486195    -1.247321
H      4.206995     4.543526    -0.953732
C      3.212359     4.896377    -2.880861
H      3.324701     4.035636    -3.551612
H      4.018126     5.609241    -3.092818
