32
Energy = -1142.571450165 Hartree (EUMP2 CORRECTED)
O      1.707986     0.146189    -0.349463
C      1.766033     1.112450    -1.423494
H      2.360678     0.660499    -2.223948
H      2.252754     2.032485    -1.075808
C      0.448579     0.325130     0.344056
H     -0.083502    -0.635230     0.321607
H      0.637957     0.621538     1.380644
C      0.314561     1.378108    -1.781828
H     -0.097410     0.534991    -2.353276
H      0.153248     2.310767    -2.327076
C     -0.322448     1.417884    -0.391885
H     -1.404839     1.250356    -0.411920
O     -0.038310     2.651161     0.279072
P     -0.925809     4.005918    -0.156685
O     -0.764220     5.010302     0.960016
O     -2.247187     3.543250    -0.724109
O      0.063153     4.497427    -1.436903
C      0.412868     5.876279    -1.555941
H     -0.126123     6.476414    -0.814376
H      0.138900     6.217912    -2.561803
C      1.913545     6.062613    -1.318874
H      2.470667     5.809543    -2.230598
O      2.187392     7.468770    -1.072717
C      2.415284     7.598365     0.341363
H      2.944544     8.544495     0.491771
H      1.459170     7.621134     0.884982
C      3.206951     6.349325     0.697481
H      3.218564     6.139368     1.772968
H      4.241194     6.459420     0.347678
C      2.447199     5.282216    -0.102184
H      1.615222     4.889549     0.487345
H      3.079030     4.440324    -0.401355
