32
Energy = -1142.569804991 Hartree (EUMP2 CORRECTED)
O      1.795847     0.766187     0.857110
C      2.215847     1.724522    -0.138560
H      3.219602     1.428649    -0.460685
H      2.256170     2.728026     0.303750
C      0.354398     0.635725     0.775050
H      0.127462    -0.424192     0.599819
H     -0.098878     0.963426     1.715525
C      1.153139     1.644584    -1.220119
H      1.293584     0.733097    -1.817591
H      1.092510     2.502239    -1.892179
C     -0.117512     1.518124    -0.381210
H     -0.943476     1.064539    -0.942205
O     -0.520123     2.768200     0.181552
P     -1.445378     3.819339    -0.785139
O     -2.803033     3.955615    -0.154183
O     -1.191210     3.443067    -2.230916
O     -0.603788     5.215086    -0.419874
C      0.508849     5.584619    -1.226800
H      0.169022     6.170235    -2.090101
H      1.040142     4.698624    -1.602348
C      1.453731     6.408708    -0.370100
H      2.349052     6.646005    -0.962263
O      0.866792     7.684473    -0.024181
C      0.314425     7.544615     1.297231
H      0.178067     8.557274     1.689943
H     -0.648338     7.023675     1.247057
C      1.357871     6.718405     2.040675
H      0.956927     6.231668     2.936613
H      2.194037     7.363634     2.336854
C      1.794274     5.709356     0.966308
H      1.217729     4.783889     1.053319
H      2.860919     5.467217     1.034988
