32
Energy = -1142.565639812 Hartree (EUMP2 CORRECTED)
O      1.162758     0.159010     0.741439
C      1.798086     0.879293    -0.334004
H      2.564054     0.216714    -0.749378
H      2.273664     1.790760     0.052834
C     -0.180243     0.685442     0.884863
H     -0.863641    -0.172338     0.895969
H     -0.265028     1.241915     1.824259
C      0.662270     1.217555    -1.285039
H      0.358754     0.317811    -1.837011
H      0.872992     2.024331    -1.992497
C     -0.438559     1.619216    -0.300210
H     -1.442944     1.511746    -0.723108
O     -0.261635     2.962611     0.166474
P     -0.850239     4.203044    -0.821185
O     -0.954840     5.404901     0.088313
O     -1.946898     3.653879    -1.695714
O      0.480114     4.430268    -1.826223
C      1.686859     4.805646    -1.177406
H      1.460190     5.178568    -0.170327
H      2.350393     3.932771    -1.069768
C      2.430572     5.886446    -1.978488
H      3.024232     5.437862    -2.782370
O      1.555506     6.816244    -2.619010
C      1.021021     7.636565    -1.559298
H      0.732953     8.586068    -2.020089
H      0.142352     7.149086    -1.123147
C      2.160336     7.771760    -0.522820
H      1.800317     7.504069     0.475546
H      2.555444     8.792321    -0.473809
C      3.232772     6.781283    -1.025386
H      3.711354     6.220631    -0.212442
H      4.015434     7.303822    -1.587086
