32
Energy = -1142.572047215 Hartree (EUMP2 CORRECTED)
O      1.137634     0.068873     0.579673
C      1.787351     1.336447     0.344525
H      2.865320     1.147099     0.361493
H      1.524072     2.050129     1.136381
C     -0.165316     0.119523    -0.052581
H     -0.250496    -0.765168    -0.695987
H     -0.950807     0.103279     0.709898
C      1.240152     1.796513    -0.995800
H      1.701025     1.222906    -1.811620
H      1.348896     2.865317    -1.182624
C     -0.233967     1.421109    -0.852431
H     -0.747095     1.314201    -1.813741
O     -0.923205     2.382103    -0.044386
P     -1.544315     3.741487    -0.789113
O     -2.650232     4.287654     0.073766
O     -1.692754     3.459616    -2.273755
O     -0.170117     4.714972    -0.606647
C     -0.324396     6.029427    -1.151119
H     -0.556723     6.731759    -0.340245
H     -1.142301     6.055460    -1.886142
C      0.954724     6.448832    -1.850907
H      0.790052     7.435356    -2.306770
O      2.038727     6.639043    -0.909780
C      2.828476     5.440935    -0.930074
H      3.807190     5.698995    -0.512456
H      2.353022     4.670366    -0.312018
C      2.862267     5.045482    -2.403348
H      3.113354     3.990203    -2.558708
H      3.609371     5.656657    -2.924212
C      1.441745     5.400255    -2.875097
H      0.775533     4.532255    -2.855913
H      1.438712     5.806016    -3.892762
