32
Energy = -1142.556065574 Hartree (EUMP2 CORRECTED)
O      1.891814     0.282963     0.193538
C      0.904835    -0.101340    -0.795340
H      0.836395    -1.193552    -0.767871
H      1.229533     0.224313    -1.790865
C      1.491861     1.553098     0.757131
H      1.331323     1.412889     1.835324
H      2.287575     2.287991     0.597936
C     -0.365327     0.622824    -0.385464
H     -0.836628     0.120863     0.470623
H     -1.085367     0.738083    -1.200001
C      0.206470     1.973167     0.053156
H     -0.471599     2.546043     0.698272
O      0.576597     2.764518    -1.079620
P     -0.726929     3.462077    -1.930442
O     -1.643119     4.105761    -0.915994
O     -1.199412     2.449989    -2.951279
O      0.130266     4.676147    -2.674784
C      1.500700     4.545783    -3.021306
H      1.956784     3.715677    -2.473352
H      1.575541     4.324955    -4.096889
C      2.254302     5.873162    -2.712436
H      2.601940     6.335013    -3.643806
O      1.450686     6.864320    -2.075896
C      1.360977     6.503230    -0.677163
H      1.410734     7.442649    -0.114812
H      0.401446     6.009137    -0.495786
C      2.557726     5.567953    -0.398497
H      2.197136     4.548468    -0.236831
H      3.136481     5.876781     0.479507
C      3.374984     5.639658    -1.700360
H      3.956269     4.730369    -1.892960
H      4.054906     6.500551    -1.695803
