32
Energy = -1142.561561991 Hartree (EUMP2 CORRECTED)
O      1.408714     0.068798     0.038201
C      1.982252     1.241236    -0.578367
H      2.845351     0.902838    -1.160278
H      2.310999     1.951164     0.192329
C      0.000363     0.333399     0.252045
H     -0.557971    -0.506773    -0.179479
H     -0.207431     0.407739     1.324426
C      0.849511     1.829752    -1.401524
H      0.689167     1.227788    -2.306346
H      0.989368     2.876928    -1.677911
C     -0.327611     1.660610    -0.436941
H     -1.306524     1.644356    -0.930560
O     -0.310085     2.686653     0.561357
P     -1.245680     4.053472     0.288358
O     -1.137897     4.884906     1.534666
O     -2.540703     3.633976    -0.379225
O     -0.291080     4.779875    -0.910256
C     -0.888670     5.005158    -2.184954
H     -1.232528     4.070241    -2.645055
H     -1.762259     5.661663    -2.077610
C      0.158658     5.652421    -3.077578
H      1.016536     5.940111    -2.447477
O      0.612642     4.718172    -4.080567
C      1.398364     5.500817    -4.982441
H      2.426628     5.584223    -4.597510
H      1.423495     4.967848    -5.937062
C      0.723496     6.892592    -5.054966
H      0.247201     7.062801    -6.025939
H      1.458783     7.690498    -4.903636
C     -0.305823     6.845297    -3.910360
H     -1.311013     6.638314    -4.296092
H     -0.349233     7.767145    -3.320930
