32
Energy = -1142.560116525 Hartree (EUMP2 CORRECTED)
O      1.031660    -0.650424    -0.008345
C      0.136233    -0.654114    -1.146669
H     -0.067693    -1.702780    -1.385802
H      0.618269    -0.166165    -2.002534
C      0.739130     0.522356     0.787632
H      0.452265     0.185371     1.793273
H      1.630761     1.154941     0.850217
C     -1.075993     0.140796    -0.694165
H     -1.705418    -0.463514    -0.026605
H     -1.673152     0.537595    -1.519684
C     -0.399726     1.263711     0.096286
H     -1.073072     1.770754     0.798516
O      0.189282     2.221228    -0.785125
P     -0.899487     3.293653    -1.532794
O     -1.873919     3.795565    -0.496482
O     -1.333997     2.651921    -2.834705
O      0.215713     4.492657    -1.855966
C      1.564428     4.122665    -2.086293
H      2.059072     3.880419    -1.134974
H      1.629284     3.237250    -2.737996
C      2.290191     5.269425    -2.759920
H      1.746085     5.563239    -3.663715
O      2.322303     6.449677    -1.918212
C      3.612709     6.510958    -1.312737
H      3.759587     7.538499    -0.967178
H      3.672869     5.833225    -0.445338
C      4.559329     6.067241    -2.420432
H      5.552210     5.774236    -2.059750
H      4.676504     6.880946    -3.145117
C      3.769406     4.903466    -3.029201
H      4.020691     3.964512    -2.518421
H      3.969494     4.759882    -4.096015
