32
Energy = -1142.567807062 Hartree (EUMP2 CORRECTED)
O      1.828580    -0.474473    -0.349432
C      2.493829     0.691961    -0.873941
H      3.190154     0.344733    -1.642952
H      3.038081     1.201510    -0.068582
C      0.742014     0.072761     0.419040
H      0.030071    -0.736355     0.601284
H      1.109629     0.453192     1.376442
C      1.355894     1.569889    -1.387625
H      1.569323     2.638734    -1.302873
H      1.122122     1.329423    -2.431735
C      0.165574     1.207264    -0.461867
H     -0.672915     0.822604    -1.052958
O     -0.366567     2.350746     0.211055
P      0.250405     2.835570     1.700901
O      1.757271     2.958028     1.537862
O     -0.389123     2.062094     2.823588
O     -0.440119     4.344574     1.688683
C      0.099908     5.328500     0.802105
H     -0.707447     5.664430     0.138570
H      0.915071     4.903783     0.201565
C      0.632742     6.507299     1.598420
H      1.098997     7.213703     0.896781
O     -0.420530     7.246244     2.246726
C     -0.675054     6.612360     3.521648
H     -0.973501     7.415105     4.205438
H     -1.495636     5.896194     3.413146
C      0.626702     5.900740     3.936631
H      0.441037     4.838729     4.112142
H      1.048793     6.334434     4.850862
C      1.571625     6.096972     2.734776
H      2.128403     5.186197     2.492642
H      2.275747     6.915715     2.926900
