32
Energy = -1142.573542154 Hartree (EUMP2 CORRECTED)
O      0.430543    -0.051304     0.807735
C      1.474563     0.950061     0.823635
H      2.425862     0.414214     0.901037
H      1.348436     1.609625     1.691140
C     -0.666312     0.458392     0.011599
H     -0.848435    -0.254406    -0.803905
H     -1.563152     0.545031     0.633652
C      1.283911     1.724203    -0.469662
H      1.654709     1.142841    -1.324788
H      1.749240     2.713653    -0.471934
C     -0.241410     1.823747    -0.518836
H     -0.628568     2.048673    -1.518191
O     -0.703043     2.803103     0.415396
P     -0.604249     4.417695    -0.057688
O     -0.547779     4.451122    -1.567968
O      0.404785     5.122688     0.825032
O     -2.140462     4.809325     0.474731
C     -2.329073     6.018169     1.216892
H     -3.101699     6.606853     0.704941
H     -1.393868     6.590349     1.259498
C     -2.787815     5.717646     2.633934
H     -2.828514     6.668219     3.184720
O     -4.129878     5.193275     2.678869
C     -4.036669     3.763261     2.496752
H     -4.882822     3.330736     3.042451
H     -4.126722     3.525904     1.431440
C     -2.662242     3.333882     3.041936
H     -2.113004     2.759269     2.293792
H     -2.764626     2.726276     3.948970
C     -1.934617     4.660885     3.340676
H     -0.903717     4.663815     2.972845
H     -1.930590     4.866388     4.417911
