32
Energy = -1142.573111333 Hartree (EUMP2 CORRECTED)
O      1.390965     0.003870    -0.859905
C      1.822885     1.254102    -1.440275
H      2.432995     1.002159    -2.313227
H      2.424673     1.818832    -0.716774
C      0.133320     0.243804    -0.181168
H     -0.588222    -0.491137    -0.560787
H      0.263133     0.114995     0.898510
C      0.530030     1.988685    -1.753583
H      0.051868     1.553079    -2.641207
H      0.642957     3.067954    -1.888348
C     -0.286199     1.679899    -0.497838
H     -1.363790     1.798428    -0.650246
O      0.152479     2.516230     0.573750
P     -0.732668     3.904795     0.946999
O     -1.997090     3.863966     0.106029
O      0.204054     5.077386     1.023297
O     -1.129676     3.529122     2.525806
C     -2.068847     2.477932     2.751089
H     -1.572160     1.689825     3.333352
H     -2.426394     2.059542     1.799883
C     -3.262832     3.010836     3.525556
H     -4.002622     2.203264     3.621016
O     -2.916914     3.378277     4.874351
C     -2.429253     4.739488     4.841808
H     -2.718510     5.188109     5.798873
H     -1.338596     4.732150     4.751761
C     -3.078165     5.417897     3.620516
H     -2.310136     5.827146     2.960502
H     -3.748380     6.231952     3.920937
C     -3.851778     4.285485     2.916784
H     -3.725453     4.311656     1.829841
H     -4.919783     4.336532     3.161389
