32
Energy = -1142.552642394 Hartree (EUMP2 CORRECTED)
O      1.154342     0.000146     0.192624
C      1.823957     1.278559     0.143040
H      2.889402     1.071450     0.000145
H      1.676719     1.820722     1.086704
C     -0.216697     0.216640    -0.221779
H     -0.447496    -0.538227    -0.983557
H     -0.890581     0.100580     0.633629
C      1.154307     2.013335    -1.004798
H      1.498569     1.596107    -1.962933
H      1.290198     3.097816    -0.992867
C     -0.312185     1.644797    -0.769358
H     -0.935841     1.706285    -1.669037
O     -0.870947     2.470949     0.256907
P     -1.713081     3.838858    -0.218089
O     -2.298846     4.433252     1.031699
O     -2.503940     3.510017    -1.472179
O     -0.383610     4.770180    -0.706450
C     -0.493710     5.463698    -1.937225
H     -1.110305     4.883879    -2.635018
H     -0.998736     6.427645    -1.771160
C      0.896437     5.731293    -2.559976
H      1.057144     6.821528    -2.634715
O      1.968479     5.180279    -1.774360
C      3.046967     4.788560    -2.644597
H      3.955379     5.327936    -2.347740
H      3.217618     3.713708    -2.500946
C      2.604706     5.107643    -4.078059
H      2.984149     4.379578    -4.803643
H      2.955026     6.102081    -4.380624
C      1.084712     5.102870    -3.937145
H      0.695460     4.077008    -3.911382
H      0.563479     5.652429    -4.729319
