32
Energy = -1142.560837704 Hartree (EUMP2 CORRECTED)
O      1.749207     0.885373    -0.841000
C      2.080323     2.198457    -0.349052
H      3.074080     2.451474    -0.733867
H      2.097917     2.191856     0.749347
C      0.317245     0.831614    -1.066966
H      0.149527     0.716326    -2.148062
H     -0.097644    -0.016244    -0.525020
C      0.960037     3.091916    -0.858901
H      1.090391     3.293541    -1.930751
H      0.854849     4.033135    -0.312461
C     -0.246205     2.182278    -0.627338
H     -1.113482     2.448582    -1.249160
O     -0.613858     2.362096     0.737769
P     -1.175148     1.291478     1.886212
O     -2.556354     0.799745     1.507527
O     -0.853794     1.915029     3.223354
O     -0.101754     0.022566     1.606536
C     -0.357181    -1.145619     2.395653
H     -1.115371    -0.944749     3.165588
H     -0.735484    -1.938839     1.737463
C      0.925585    -1.598863     3.069448
H      0.687363    -2.453799     3.719172
O      1.874874    -2.102962     2.102237
C      2.796611    -1.030235     1.822079
H      3.689747    -1.492782     1.388435
H      2.353675    -0.336067     1.102104
C      3.028184    -0.384177     3.183798
H      3.402999     0.643005     3.107145
H      3.755545    -0.976630     3.753176
C      1.634024    -0.455890     3.829836
H      1.080625     0.479641     3.700839
H      1.691587    -0.670725     4.903061
