32
Energy = -1142.571593075 Hartree (EUMP2 CORRECTED)
O      2.228233     0.860997    -0.248896
C      2.383073     2.285548    -0.349332
H      3.304199     2.468531    -0.911002
H      2.462977     2.737315     0.649831
C      0.831544     0.617423     0.062728
H      0.524774    -0.260580    -0.515314
H      0.709928     0.416268     1.130945
C      1.106624     2.732107    -1.044442
H      1.150575     2.449352    -2.104033
H      0.880726     3.798259    -0.954811
C      0.055808     1.896123    -0.311651
H     -0.818029     1.688863    -0.941167
O     -0.325910     2.620751     0.855770
P     -1.809700     2.274282     1.566182
O     -2.904455     3.005134     0.816674
O     -1.608642     2.345386     3.056338
O     -1.909555     0.645449     1.130308
C     -2.937495     0.192772     0.248587
H     -2.462391    -0.418768    -0.532233
H     -3.446121     1.051781    -0.208115
C     -3.945655    -0.662793     0.996038
H     -4.751293    -0.930670     0.297452
O     -3.380087    -1.913906     1.431166
C     -2.757247    -1.684550     2.716975
H     -2.854222    -2.624322     3.272244
H     -1.697421    -1.452826     2.569932
C     -3.493959    -0.500309     3.368560
H     -2.792565     0.293105     3.637954
H     -4.035728    -0.812979     4.269063
C     -4.467426    -0.009445     2.278138
H     -4.492297     1.082376     2.202741
H     -5.484853    -0.369804     2.472470
