32
Energy = -1142.569107807 Hartree (EUMP2 CORRECTED)
O      1.702723    -0.009176     0.032126
C      0.911640    -0.031590    -1.178698
H      1.027343    -1.029334    -1.613690
H      1.280847     0.724154    -1.883294
C      1.067984     0.900395     0.961939
H      0.858658     0.343024     1.884739
H      1.740703     1.736749     1.178532
C     -0.498301     0.304797    -0.725964
H     -0.958113    -0.561736    -0.231556
H     -1.144527     0.667065    -1.530129
C     -0.212389     1.403341     0.300922
H     -1.031718     1.558775     1.013701
O      0.102034     2.638745    -0.347113
P     -1.215448     3.481032    -1.000003
O     -2.336665     3.508038     0.006765
O     -1.391194     2.998256    -2.429244
O     -0.491881     4.978524    -1.032648
C      0.848201     5.078491    -1.523383
H      1.188941     4.122794    -1.938403
H      1.512033     5.351152    -0.694399
C      0.893075     6.121143    -2.639257
H      0.929428     7.131565    -2.211737
O      2.126975     5.968247    -3.392662
C      1.775402     5.362931    -4.647679
H      2.593227     5.575629    -5.343226
H      1.669412     4.273220    -4.533809
C      0.440382     6.000045    -5.002479
H     -0.108012     5.447208    -5.773671
H      0.607835     7.025359    -5.355909
C     -0.267028     5.976225    -3.641240
H     -0.779054     5.020187    -3.486777
H     -1.005912     6.774798    -3.525334
