32
Energy = -1142.570926895 Hartree (EUMP2 CORRECTED)
O      1.672130     0.387227     0.320923
C      2.062288     1.636779    -0.291151
H      2.970948     1.435904    -0.867441
H      2.273930     2.385617     0.483082
C      0.236190     0.417792     0.504361
H     -0.173379    -0.489935     0.042756
H     -0.002349     0.433900     1.573065
C      0.859329     2.048760    -1.121441
H      0.800785     1.437322    -2.032472
H      0.826713     3.112387    -1.374610
C     -0.284980     1.687217    -0.170201
H     -1.240383     1.526691    -0.682049
O     -0.436607     2.679627     0.851303
P     -1.285533     4.087380     0.496804
O     -0.530715     4.889325    -0.545638
O     -1.761764     4.630210     1.814687
O     -2.589827     3.365464    -0.299553
C     -2.850888     3.711113    -1.654153
H     -1.982919     3.494621    -2.289365
H     -3.081319     4.783059    -1.752342
C     -4.041394     2.881985    -2.095880
H     -4.280482     3.127905    -3.140364
O     -3.701877     1.472225    -2.088505
C     -4.290296     0.896311    -0.910459
H     -4.355355    -0.182693    -1.083366
H     -3.659834     1.102169    -0.036512
C     -5.637057     1.598278    -0.793231
H     -6.077266     1.516293     0.206865
H     -6.338183     1.173158    -1.521807
C     -5.262805     3.039561    -1.163906
H     -4.965977     3.596389    -0.270172
H     -6.082386     3.574990    -1.656038
