32
Energy = -1142.571348462 Hartree (EUMP2 CORRECTED)
O      1.106991     0.561246     1.313675
C      1.834077     1.099550     0.184598
H      2.637895     0.392070    -0.042992
H      2.268358     2.071440     0.452992
C     -0.282508     0.944728     1.179546
H     -0.883737     0.026334     1.137911
H     -0.582675     1.544656     2.044521
C      0.797991     1.256470    -0.914621
H      0.570257     0.280560    -1.365283
H      1.060321     1.979192    -1.691939
C     -0.400989     1.755739    -0.107364
H     -1.365862     1.603206    -0.608968
O     -0.237443     3.133078     0.236691
P     -0.775648     4.251565    -0.928839
O     -2.280824     4.200794    -1.001942
O      0.126344     4.100756    -2.136610
O     -0.366916     5.604436    -0.056267
C      0.895883     5.697600     0.605092
H      1.509698     6.441462     0.080052
H      1.418078     4.732751     0.601528
C      0.666458     6.147533     2.038124
H      1.642778     6.221921     2.538851
O      0.107486     7.482284     2.071178
C     -1.311484     7.334650     2.264274
H     -1.682429     8.301201     2.620211
H     -1.792864     7.067116     1.316858
C     -1.422882     6.204822     3.280372
H     -2.414315     5.738676     3.290604
H     -1.205153     6.590884     4.283999
C     -0.322922     5.242581     2.806451
H     -0.727802     4.484158     2.132266
H      0.170488     4.730132     3.640303
