32
Energy = -1142.561108613 Hartree (EUMP2 CORRECTED)
O      0.970894    -0.094559     0.552710
C      1.976179     0.885056     0.230953
H      2.914388     0.341343     0.080389
H      2.090192     1.600138     1.056482
C     -0.311734     0.438935     0.133951
H     -0.790984    -0.325132    -0.491254
H     -0.933531     0.654397     1.008301
C      1.439827     1.583563    -1.009320
H      1.553188     0.935282    -1.888692
H      1.904184     2.555663    -1.198581
C     -0.037558     1.734938    -0.642254
H     -0.701824     1.819540    -1.505183
O     -0.170395     2.845285     0.237581
P     -1.216410     4.157046     0.043765
O     -0.348554     5.384416     0.187979
O     -2.481178     3.888140     0.817671
O     -1.690932     4.025864    -1.573069
C     -0.712345     4.082921    -2.606926
H      0.200594     3.538225    -2.348504
H     -0.427776     5.131804    -2.793086
C     -1.336680     3.492162    -3.857908
H     -0.618239     3.569236    -4.686374
O     -1.586019     2.075894    -3.682593
C     -2.986727     1.923276    -3.386879
H     -3.242403     0.880845    -3.600802
H     -3.173768     2.152963    -2.330750
C     -3.660510     2.938035    -4.301388
H     -4.679709     3.186328    -3.985415
H     -3.695813     2.544542    -5.324521
C     -2.700189     4.132135    -4.203596
H     -3.005018     4.799728    -3.392724
H     -2.650889     4.709368    -5.133614
