32
Energy = -1142.568661709 Hartree (EUMP2 CORRECTED)
O      1.258187     0.008683     0.628173
C      1.674939     1.381749     0.788227
H      2.754133     1.365971     0.968788
H      1.162000     1.836057     1.645957
C      0.069838     0.007562    -0.198715
H      0.238241    -0.709441    -1.012111
H     -0.799310    -0.297458     0.392771
C      1.255688     2.055277    -0.507338
H      1.935809     1.759888    -1.318336
H      1.192379     3.144452    -0.460150
C     -0.125929     1.435897    -0.719337
H     -0.460328     1.446822    -1.763770
O     -1.086676     2.072367     0.121538
P     -2.002238     3.355711    -0.436563
O     -2.196248     4.321359     0.703139
O     -3.147724     2.827695    -1.279427
O     -0.853896     3.955501    -1.528000
C     -1.268030     5.117516    -2.251882
H     -0.657724     5.968880    -1.924028
H     -2.325244     5.349805    -2.059937
C     -1.080286     4.891708    -3.741136
H     -1.414329     5.794763    -4.272605
O      0.324836     4.748715    -4.068966
C      0.581762     3.345285    -4.227513
H      1.504116     3.255325    -4.810972
H      0.716416     2.877958    -3.245599
C     -0.662113     2.815877    -4.931055
H     -0.786333     1.732296    -4.820978
H     -0.602797     3.050443    -6.001170
C     -1.783419     3.614569    -4.248666
H     -2.217324     3.069539    -3.403686
H     -2.595254     3.858410    -4.943110
