32
Energy = -1142.561005824 Hartree (EUMP2 CORRECTED)
O      1.104001    -0.271233    -0.107509
C      1.740926     0.830468    -0.780187
H      2.590215     0.415337    -1.332277
H      2.108470     1.560381    -0.045541
C     -0.264041     0.127965     0.157142
H     -0.899264    -0.725312    -0.105817
H     -0.387335     0.371439     1.218355
C      0.640240     1.423554    -1.644710
H      0.460203     0.771840    -2.509893
H      0.815720     2.444325    -1.995796
C     -0.557715     1.371843    -0.691844
H     -1.508977     1.311020    -1.229370
O     -0.583760     2.499306     0.192103
P     -1.273983     3.928312    -0.409601
O     -1.781290     4.659064     0.806200
O     -2.074378     3.596857    -1.644541
O      0.114375     4.713549    -0.961181
C      1.264297     4.722436    -0.114325
H      1.119278     5.429990     0.713049
H      1.431358     3.725771     0.309149
C      2.453214     5.171159    -0.956292
H      2.080344     5.466028    -1.950625
O      3.087265     6.311158    -0.331396
C      4.319177     6.500298    -1.033440
H      4.152364     7.159047    -1.899284
H      5.009254     6.996017    -0.344536
C      4.789050     5.096759    -1.489134
H      5.728434     4.800101    -1.011099
H      4.948443     5.073747    -2.572843
C      3.617362     4.190377    -1.080520
H      3.796286     3.738164    -0.098167
H      3.418578     3.386511    -1.797658
