32
Energy = -1142.573430422 Hartree (EUMP2 CORRECTED)
O     -0.759504     0.061336     0.409570
C      0.546904     0.597695     0.734881
H      1.231419    -0.252722     0.821614
H      0.494334     1.129400     1.692446
C     -1.404588     0.964855    -0.519607
H     -1.513809     0.450777    -1.485677
H     -2.392170     1.230997    -0.133578
C      0.875261     1.559603    -0.397009
H      1.219532     1.013039    -1.285649
H      1.610269     2.324347    -0.131525
C     -0.499367     2.180043    -0.647795
H     -0.578552     2.690190    -1.613072
O     -0.806703     3.077756     0.419576
P     -0.405537     4.712020     0.221077
O      0.035770     4.897401    -1.210467
O      0.402048     5.120291     1.432990
O     -1.946015     5.342105     0.367850
C     -2.353456     6.016011     1.560955
H     -2.999061     6.840293     1.232822
H     -1.477730     6.421033     2.085234
C     -3.147170     5.132233     2.513826
H     -3.505606     5.778275     3.329394
O     -4.337686     4.615965     1.877970
C     -4.007196     3.291786     1.414987
H     -4.957507     2.778584     1.232066
H     -3.425433     3.359132     0.490101
C     -3.177438     2.693078     2.546179
H     -2.525656     1.881671     2.207819
H     -3.845378     2.312208     3.329143
C     -2.375106     3.905431     3.048997
H     -1.352115     3.894338     2.667654
H     -2.322374     3.929917     4.143847
