32
Energy = -1142.562288069 Hartree (EUMP2 CORRECTED)
O      1.147410     0.012483     0.652814
C      1.313532     1.295590     1.296105
H      2.168893     1.200542     1.972665
H      0.413210     1.546195     1.873342
C      0.515349     0.247657    -0.629135
H      1.119198    -0.264609    -1.388941
H     -0.501330    -0.159098    -0.625247
C      1.510070     2.273356     0.151145
H      2.520295     2.173172    -0.267432
H      1.320452     3.320368     0.393700
C      0.474837     1.762389    -0.849914
H      0.692460     2.036617    -1.885010
O     -0.834003     2.218375    -0.493827
P     -1.445569     3.584341    -1.229110
O     -2.851977     3.762096    -0.725919
O     -1.074786     3.567955    -2.703283
O     -0.430500     4.699573    -0.470712
C     -0.061955     5.900294    -1.129610
H     -0.937889     6.369366    -1.605925
H      0.260957     6.562346    -0.316865
C      1.076215     5.821645    -2.179432
H      1.754640     6.669618    -1.975371
O      1.867574     4.624464    -2.052359
C      1.987719     4.004696    -3.349963
H      2.986992     3.557524    -3.402392
H      1.215088     3.235390    -3.454877
C      1.743812     5.123460    -4.353758
H      1.447012     4.744365    -5.338435
H      2.643420     5.742905    -4.470993
C      0.629411     5.890222    -3.642718
H     -0.320159     5.359864    -3.756266
H      0.525282     6.928149    -3.982456
