32
Energy = -1142.564684489 Hartree (EUMP2 CORRECTED)
O      0.968048     0.038469     0.667703
C      1.498539     1.358950     0.927399
H      2.491585     1.219914     1.366320
H      0.851646     1.889959     1.637822
C      0.064934     0.141160    -0.459219
H      0.391441    -0.588110    -1.212185
H     -0.956928    -0.086883    -0.138962
C      1.492454     2.048383    -0.425050
H      2.310526     1.658459    -1.047537
H      1.547784     3.138798    -0.389426
C      0.149870     1.575220    -0.982073
H      0.081134     1.632023    -2.074363
O     -0.936075     2.305883    -0.398110
P     -1.409921     3.736121    -1.108470
O     -2.758552     4.105181    -0.551143
O     -1.113688     3.672933    -2.599339
O     -0.222685     4.710336    -0.406701
C     -0.038295     5.993298    -0.992893
H     -0.971316     6.367792    -1.439204
H      0.213657     6.654722    -0.154117
C      1.099139     6.065136    -2.044289
H      1.692318     6.966924    -1.818381
O      2.017832     4.960937    -1.956262
C      1.992343     4.247031    -3.209415
H      2.974312     3.775324    -3.323425
H      1.197391     3.493215    -3.188176
C      1.680039     5.316373    -4.247891
H      1.312171     4.894639    -5.190321
H      2.574774     5.918894    -4.453907
C      0.616391     6.127128    -3.503083
H     -0.350307     5.621595    -3.588985
H      0.526037     7.161735    -3.854749
