32
Energy = -1142.566843960 Hartree (EUMP2 CORRECTED)
O      1.483341    -0.093250     0.951488
C      1.569605    -0.016205    -0.496068
H      0.938608    -0.813078    -0.913547
H      2.608285    -0.205754    -0.789802
C      0.841956     1.107152     1.425884
H      0.207964     0.836816     2.275396
H      1.584778     1.851794     1.742882
C      1.077049     1.372066    -0.890175
H      0.626750     1.392199    -1.886478
H      1.874594     2.118897    -0.861252
C      0.073942     1.658644     0.230735
H     -0.840043     1.067792     0.061272
O     -0.321426     2.994727     0.505720
P     -0.170094     4.251020    -0.583576
O      1.240671     4.341181    -1.127949
O     -0.894600     5.409788     0.048537
O     -1.148689     3.593871    -1.795273
C     -0.709993     3.605080    -3.154181
H     -0.878019     2.599388    -3.564950
H      0.361286     3.843456    -3.202002
C     -1.501933     4.599462    -3.987148
H     -1.066419     4.617173    -4.996614
O     -2.870694     4.186825    -4.167198
C     -3.616857     4.671471    -3.026291
H     -4.635158     4.855534    -3.386646
H     -3.634958     3.899051    -2.250635
C     -2.896029     5.936000    -2.526979
H     -2.648830     5.857059    -1.465510
H     -3.506832     6.832860    -2.684393
C     -1.601598     5.993355    -3.362344
H     -0.731173     6.239568    -2.746153
H     -1.683986     6.737720    -4.163530
