32
Energy = -1142.561674189 Hartree (EUMP2 CORRECTED)
O      1.047307    -0.728830    -0.588444
C      1.163641     0.375801    -1.498751
H      1.378437    -0.046415    -2.485555
H      1.981589     1.035924    -1.187118
C      0.339509    -0.233514     0.572096
H     -0.349294    -1.030280     0.876558
H      1.046564    -0.006284     1.371270
C     -0.186892     1.067560    -1.384681
H     -0.944306     0.474682    -1.914705
H     -0.205841     2.099924    -1.746404
C     -0.434426     1.031610     0.132808
H     -1.501092     0.937094     0.366223
O     -0.064098     2.276539     0.726757
P      1.408550     2.806781     1.305365
O      2.431676     1.688653     1.310521
O      1.096935     3.670029     2.499625
O      1.783664     3.844936     0.030545
C      3.021914     3.713840    -0.667023
H      3.522286     2.779320    -0.379864
H      2.801012     3.696333    -1.743858
C      3.937391     4.891314    -0.375779
H      4.899867     4.705986    -0.874126
O      3.442798     6.120886    -0.940496
C      2.528856     6.698786     0.021023
H      2.599858     7.784629    -0.109179
H      1.509994     6.366793    -0.202713
C      2.973208     6.209499     1.411032
H      2.149770     5.718387     1.935407
H      3.344410     7.037538     2.026685
C      4.092604     5.191148     1.117391
H      3.999791     4.290844     1.733206
H      5.081179     5.633076     1.291765
