32
Energy = -1142.570239771 Hartree (EUMP2 CORRECTED)
O      1.767742     0.085983    -0.456731
C      2.350424     1.371614    -0.145063
H      3.412171     1.307712    -0.402831
H      2.240134     1.586234     0.925327
C      0.374589     0.300531    -0.789437
H      0.198579    -0.145268    -1.777053
H     -0.264065    -0.183485    -0.043585
C      1.551194     2.360126    -0.976600
H      1.849102     2.298874    -2.032092
H      1.618303     3.398081    -0.641329
C      0.136573     1.809785    -0.795395
H     -0.552663     2.137495    -1.580928
O     -0.374692     2.162065     0.492535
P     -1.014310     3.698166     0.679825
O     -1.089351     4.381752    -0.671353
O     -0.355835     4.327820     1.884713
O     -2.553696     3.186278     1.117207
C     -3.664265     4.022058     0.781262
H     -4.383098     3.412817     0.216680
H     -3.340993     4.857060     0.145243
C     -4.348460     4.546837     2.032221
H     -5.150235     5.230768     1.718034
O     -5.007579     3.496512     2.767162
C     -4.028826     2.912393     3.658195
H     -4.583498     2.587177     4.545728
H     -3.570394     2.044508     3.173236
C     -2.980982     4.002254     3.947925
H     -1.976963     3.672081     3.673127
H     -2.981247     4.289338     5.006242
C     -3.396072     5.181154     3.047896
H     -2.522825     5.643940     2.578609
H     -3.941844     5.940548     3.621271
