32
Energy = -1142.571985128 Hartree (EUMP2 CORRECTED)
O      1.407126     0.075457    -0.898883
C      1.576590     1.265534    -1.694077
H      2.102943     0.965308    -2.605669
H      2.174578     2.007167    -1.147907
C      0.233130     0.264202    -0.067237
H     -0.412246    -0.611260    -0.211406
H      0.532130     0.334090     0.982816
C      0.159696     1.772185    -1.910211
H     -0.354214     1.142156    -2.648302
H      0.095716     2.822130    -2.208856
C     -0.440369     1.565566    -0.520963
H     -1.531447     1.486864    -0.508349
O     -0.016685     2.659709     0.292595
P     -1.068077     3.282996     1.454097
O     -2.283724     2.373194     1.496396
O     -1.122040     4.777038     1.290092
O     -0.151318     3.022848     2.826611
C     -0.237573     1.773465     3.511414
H      0.772985     1.347331     3.577411
H     -0.901062     1.081051     2.976100
C     -0.787337     1.992993     4.911364
H     -0.902967     1.012648     5.395441
O      0.124891     2.731363     5.745526
C     -0.120275     4.139699     5.519894
H      0.078497     4.638288     6.475459
H      0.572656     4.510652     4.758445
C     -1.579862     4.272027     5.045859
H     -1.620344     4.774383     4.076685
H     -2.184868     4.842429     5.760676
C     -2.076651     2.817415     4.928875
H     -2.677450     2.652316     4.029017
H     -2.665430     2.537067     5.810878
