32
Energy = -1142.565683871 Hartree (EUMP2 CORRECTED)
O     -0.011961    -0.241339     0.697378
C      1.233269     0.233788     0.149232
H      1.812568    -0.650333    -0.133784
H      1.785494     0.813171     0.901563
C     -0.977695     0.827645     0.550491
H     -1.892064     0.381067     0.142606
H     -1.186968     1.284109     1.523806
C      0.814467     1.123565    -1.009212
H      0.477932     0.506057    -1.853282
H      1.588086     1.820850    -1.340241
C     -0.366090     1.877133    -0.386934
H     -1.093684     2.250623    -1.117495
O      0.111824     2.960027     0.413637
P      0.133143     4.497039    -0.268044
O      0.607506     5.421792     0.813631
O     -1.137046     4.668851    -1.082333
O      1.390658     4.316614    -1.380898
C      1.058038     4.191459    -2.764053
H      1.968614     3.833005    -3.257487
H      0.255300     3.457964    -2.910641
C      0.664550     5.525127    -3.399268
H      0.834102     6.325763    -2.662488
O      1.517371     5.750081    -4.553689
C      0.920565     6.827084    -5.289495
H      1.387826     7.777464    -4.991677
H      1.137430     6.650338    -6.348145
C     -0.591035     6.816369    -4.955751
H     -1.212495     6.711848    -5.851995
H     -0.882004     7.748810    -4.459421
C     -0.731605     5.629006    -3.994655
H     -0.943080     4.704257    -4.547258
H     -1.488177     5.749925    -3.216609
