32
Energy = -1142.573028034 Hartree (EUMP2 CORRECTED)
O      0.739521    -0.104398    -0.763121
C      1.556302     0.816933    -0.004213
H      2.596113     0.505482    -0.144364
H      1.293815     0.760090     1.060047
C     -0.458018     0.599339    -1.169963
H     -0.546473     0.499787    -2.259857
H     -1.332633     0.153963    -0.683967
C      1.218001     2.183923    -0.571384
H      1.697092     2.315696    -1.551331
H      1.455349     3.032013     0.075878
C     -0.296027     2.057772    -0.739441
H     -0.711818     2.761320    -1.470137
O     -0.955117     2.206259     0.525851
P     -1.366799     3.766312     0.995748
O     -0.145088     4.648150     0.879044
O     -2.213246     3.632815     2.238172
O     -2.372952     4.095022    -0.318469
C     -3.636947     4.717040    -0.097120
H     -3.692383     5.598768    -0.748815
H     -3.742141     5.027562     0.950830
C     -4.766834     3.763176    -0.451113
H     -5.722058     4.292075    -0.314852
O     -4.713781     3.412219    -1.857274
C     -4.130277     2.102104    -1.942244
H     -4.403307     1.696438    -2.922050
H     -3.039799     2.172201    -1.855627
C     -4.728524     1.353610    -0.758528
H     -4.151895     0.465185    -0.477879
H     -5.752617     1.043998    -1.002317
C     -4.717844     2.433636     0.332365
H     -3.806190     2.385671     0.933358
H     -5.570184     2.343800     1.015154
