32
Energy = -1142.563521066 Hartree (EUMP2 CORRECTED)
O      0.986695     0.207878     1.511850
C      2.099001     1.025420     1.113567
H      3.010737     0.480523     1.378953
H      2.077066     1.988517     1.641458
C     -0.141514     0.549306     0.660379
H     -0.533521    -0.389012     0.249683
H     -0.920642     1.053920     1.236211
C      1.896131     1.230507    -0.380708
H      2.150463     0.310291    -0.923054
H      2.461254     2.070940    -0.794360
C      0.391991     1.483510    -0.434727
H     -0.064483     1.249977    -1.401568
O      0.177858     2.854378    -0.073989
P     -1.236344     3.584795    -0.637912
O     -1.097950     5.041572    -0.273491
O     -2.407698     2.703655    -0.278606
O     -1.058007     3.451447    -2.312971
C      0.132836     3.140876    -3.015789
H      0.003074     2.182233    -3.538814
H      0.997363     3.073675    -2.341361
C      0.410566     4.238097    -4.032235
H      1.340361     3.995381    -4.568585
O     -0.624781     4.276841    -5.040669
C     -1.522729     5.342636    -4.676560
H     -2.085173     5.601510    -5.579416
H     -2.204186     5.003565    -3.888322
C     -0.597496     6.442668    -4.172535
H     -1.113897     7.179674    -3.548250
H     -0.140871     6.958623    -5.026504
C      0.447685     5.639796    -3.383353
H      0.155803     5.580000    -2.329564
H      1.447729     6.083922    -3.446877
