32
Energy = -1142.569328186 Hartree (EUMP2 CORRECTED)
O      0.826638    -0.268300     1.426285
C     -0.217983     0.635420     1.841508
H      0.164578     1.342128     2.590369
H     -1.008779     0.021337     2.283550
C      1.568503     0.385845     0.364535
H      2.557371     0.683092     0.730172
H      1.669780    -0.335620    -0.454627
C     -0.606710     1.362979     0.564834
H     -1.141850     2.304939     0.714220
H     -1.194523     0.695688    -0.079835
C      0.770270     1.629224    -0.045074
H      0.744732     1.761631    -1.130414
O      1.345715     2.772364     0.589948
P      1.615864     4.202675    -0.266170
O      2.907294     4.771160     0.265314
O      0.312003     4.951104    -0.391164
O      1.882717     3.564146    -1.804264
C      3.146162     2.944876    -2.034693
H      3.302207     2.102271    -1.345150
H      3.960905     3.667109    -1.879754
C      3.139150     2.435134    -3.462317
H      4.107180     1.962224    -3.679657
O      2.144789     1.391137    -3.617316
C      1.003294     1.982477    -4.261379
H      0.423443     1.161310    -4.694500
H      0.398127     2.528624    -3.527213
C      1.613314     2.931709    -5.284643
H      0.906210     3.689377    -5.640391
H      1.977989     2.359054    -6.146081
C      2.779873     3.532509    -4.488417
H      2.454625     4.432148    -3.958008
H      3.635322     3.789349    -5.122959
