32
Energy = -1142.570965782 Hartree (EUMP2 CORRECTED)
O     -0.113545    -0.280370     0.439716
C      0.104652     0.043801    -0.952007
H     -0.576533    -0.584931    -1.533186
H      1.146233    -0.163835    -1.221235
C      0.532082     0.790479     1.148450
H      0.144578     0.782937     2.171475
H      1.619703     0.658432     1.146315
C     -0.177590     1.542788    -1.049337
H      0.418341     2.038715    -1.819450
H     -1.239833     1.720334    -1.257987
C      0.172558     2.067765     0.365726
H     -0.709900     2.539543     0.813378
O      1.172880     3.087809     0.455680
P      2.615310     2.989054    -0.391382
O      2.879575     1.542454    -0.742714
O      3.600570     3.893351     0.308398
O      2.067742     3.783873    -1.774883
C      2.927657     4.727026    -2.417565
H      3.074359     4.403781    -3.456989
H      3.896906     4.774981    -1.905061
C      2.295681     6.108265    -2.406234
H      3.018397     6.820015    -2.830081
O      1.135914     6.186987    -3.259738
C     -0.005517     5.763006    -2.482959
H     -0.860330     6.336885    -2.859006
H     -0.181975     4.694889    -2.650159
C      0.326180     6.044062    -1.005424
H      0.242085     5.132089    -0.411168
H     -0.340780     6.805086    -0.582611
C      1.788763     6.531043    -1.025835
H      2.385231     6.086173    -0.223027
H      1.835027     7.624063    -0.947381
