32
Energy = -1142.570289485 Hartree (EUMP2 CORRECTED)
O     -0.805846    -0.590437     0.495488
C     -0.361049    -0.698140    -0.884419
H     -1.233436    -0.967256    -1.495300
H      0.371214    -1.511165    -0.947821
C     -0.630108     0.775824     0.913412
H     -1.454276     1.029733     1.586896
H      0.326040     0.906888     1.439875
C      0.212230     0.660561    -1.271828
H      0.107432     0.895519    -2.332733
H      1.272078     0.742017    -1.011045
C     -0.598029     1.598323    -0.370017
H     -1.614529     1.712819    -0.776574
O     -0.090610     2.895102    -0.075170
P      1.062492     3.650887    -1.037376
O      1.172992     5.048767    -0.480117
O      0.840946     3.298047    -2.486446
O      2.431443     2.784524    -0.583088
C      2.994058     3.045568     0.705812
H      2.397047     3.792428     1.245366
H      3.004928     2.103900     1.272747
C      4.416194     3.555027     0.550513
H      4.808766     3.797143     1.548433
O      5.297304     2.543654     0.022978
C      5.225525     2.606552    -1.419849
H      6.227125     2.351945    -1.785227
H      4.503884     1.866159    -1.779653
C      4.780271     4.034306    -1.788224
H      3.859821     4.005909    -2.375424
H      5.547646     4.558294    -2.370329
C      4.537185     4.722088    -0.431141
H      3.635139     5.341917    -0.436104
H      5.400833     5.336520    -0.148654
