32
Energy = -1142.565440691 Hartree (EUMP2 CORRECTED)
O      1.434517    -0.775991    -0.502539
C      1.893868     0.255688    -1.402458
H      2.194702    -0.244079    -2.328275
H      2.743455     0.784930    -0.956332
C      0.743848    -0.053149     0.530428
H      0.111392    -0.771313     1.060055
H      1.456734     0.407717     1.222480
C      0.699369     1.197076    -1.547757
H      0.999536     2.232398    -1.710263
H      0.057276     0.879819    -2.378534
C     -0.057690     1.041474    -0.204225
H     -1.074297     0.681791    -0.398700
O     -0.271787     2.224177     0.562985
P      0.977290     3.180724     1.168152
O      2.283146     2.658456     0.595703
O      0.712050     3.415073     2.628459
O      0.613528     4.624155     0.403819
C      1.054642     4.862611    -0.926878
H      0.241509     4.638732    -1.632546
H      1.929472     4.237979    -1.157721
C      1.444299     6.325734    -1.046170
H      1.813517     6.508234    -2.065286
O      0.297623     7.191032    -0.887347
C      0.277912     7.602811     0.492693
H     -0.357922     8.492401     0.545242
H     -0.133562     6.801901     1.116066
C      1.744993     7.862766     0.818472
H      1.951285     7.822314     1.893428
H      2.035971     8.851265     0.442794
C      2.462047     6.747964     0.037819
H      2.684920     5.897417     0.687771
H      3.399948     7.096484    -0.408633
