32
Energy = -1142.558868256 Hartree (EUMP2 CORRECTED)
O      0.054292     0.999669    -1.746173
C      0.971410     2.105809    -1.618970
H      1.325169     2.338768    -2.628732
H      1.815613     1.820186    -0.982501
C     -0.906244     1.090439    -0.676909
H     -1.905012     1.082274    -1.136129
H     -0.815523     0.235901    -0.004726
C      0.140772     3.207654    -0.977439
H      0.732413     3.985194    -0.486107
H     -0.523354     3.660681    -1.726688
C     -0.678987     2.422224     0.056735
H     -1.638846     2.908491     0.270944
O     -0.008385     2.386454     1.306190
P      1.158333     1.399000     1.994671
O      0.524911     0.666692     3.156261
O      2.412153     2.233200     2.108943
O      1.435555     0.295269     0.760879
C      1.153621    -1.093241     0.947618
H      0.513167    -1.229806     1.829068
H      0.638322    -1.446094     0.044033
C      2.432221    -1.898507     1.117730
H      2.147725    -2.931407     1.364558
O      3.186276    -1.991469    -0.105928
C      4.021308    -0.813969    -0.179997
H      4.915266    -1.110078    -0.740445
H      3.490236    -0.028374    -0.727644
C      4.310129    -0.380432     1.268685
H      4.039245     0.666567     1.426443
H      5.368588    -0.515312     1.521663
C      3.413995    -1.297447     2.126504
H      2.903013    -0.751625     2.925692
H      4.001360    -2.107530     2.575660
