32
Energy = -1142.570438283 Hartree (EUMP2 CORRECTED)
O      1.457679     0.587343     1.021526
C      0.500827     1.593257     1.414773
H      1.019611     2.518930     1.698054
H     -0.041262     1.195110     2.278591
C      1.701504     0.740010    -0.401760
H      2.732507     1.064219    -0.571997
H      1.534013    -0.238391    -0.869338
C     -0.350268     1.812990     0.173860
H     -0.917497     2.748100     0.161568
H     -1.037076     0.965656     0.040153
C      0.723282     1.801514    -0.911689
H      0.360002     1.551860    -1.913645
O      1.371681     3.075347    -0.925481
P      1.527880     3.914794    -2.375831
O      1.422821     2.914733    -3.509854
O      2.628892     4.914613    -2.171566
O      0.094306     4.801157    -2.343704
C     -1.106966     4.197659    -2.806949
H     -1.187752     3.150245    -2.493463
H     -1.148821     4.225985    -3.907422
C     -2.267399     4.977138    -2.213305
H     -3.206786     4.594702    -2.636676
O     -2.358449     4.742383    -0.788169
C     -1.694640     5.842190    -0.138498
H     -2.044982     5.852762     0.898544
H     -0.609415     5.696427    -0.172801
C     -2.123880     7.056359    -0.954663
H     -1.451064     7.911565    -0.827711
H     -3.135026     7.359504    -0.657287
C     -2.118498     6.505872    -2.390788
H     -1.167645     6.726849    -2.883059
H     -2.932109     6.921754    -2.995683
