32
Energy = -1142.568675615 Hartree (EUMP2 CORRECTED)
O      0.855460     0.291059    -1.386379
C      1.441719     1.574798    -1.691014
H      1.891663     1.484538    -2.685085
H      2.209165     1.840165    -0.954959
C     -0.115451     0.520119    -0.341412
H     -0.956338    -0.153095    -0.545091
H      0.317983     0.282467     0.632164
C      0.271664     2.541482    -1.612860
H      0.575804     3.579283    -1.463937
H     -0.342721     2.445277    -2.518033
C     -0.528004     2.010434    -0.409689
H     -1.604271     2.097834    -0.597939
O     -0.366539     2.720228     0.826224
P      1.097128     3.235261     1.477139
O      0.754821     3.763842     2.845632
O      1.886747     3.977551     0.426153
O      1.893488     1.758179     1.647995
C      1.634162     1.032574     2.851273
H      0.592710     0.680290     2.875816
H      1.792736     1.681256     3.723541
C      2.572755    -0.156921     2.897807
H      2.428439    -0.674417     3.857341
O      2.232712    -1.123501     1.874787
C      3.192828    -0.980284     0.812497
H      3.167889    -1.909977     0.236061
H      2.913633    -0.142930     0.164825
C      4.503716    -0.720432     1.543567
H      5.273709    -0.280915     0.899148
H      4.888536    -1.660734     1.957681
C      4.049348     0.228287     2.661135
H      4.101654     1.267602     2.323888
H      4.647128     0.125009     3.573663
