32
Energy = -1142.569812163 Hartree (EUMP2 CORRECTED)
O      1.622030     0.298809     0.500644
C      2.032940     1.480912    -0.209474
H      2.937146     1.219450    -0.769166
H      2.256727     2.292087     0.496194
C      0.182604     0.371596     0.693511
H     -0.242713    -0.566916     0.314632
H     -0.052766     0.488756     1.755329
C      0.831948     1.835940    -1.072375
H      0.761305     1.144420    -1.922222
H      0.825082     2.868826    -1.432839
C     -0.314521     1.590500    -0.095104
H     -1.271913     1.400985    -0.588242
O     -0.390659     2.741840     0.748716
P     -1.807180     3.098370     1.597868
O     -1.933552     4.600668     1.594217
O     -1.878733     2.213125     2.817291
O     -2.942493     2.442374     0.537465
C     -3.251931     3.203126    -0.628777
H     -2.345121     3.408953    -1.215983
H     -3.701898     4.166991    -0.349885
C     -4.217009     2.374370    -1.453599
H     -4.493184     2.935928    -2.357165
O     -3.566130     1.165972    -1.921702
C     -4.008644     0.088759    -1.077864
H     -3.821171    -0.840046    -1.625850
H     -3.446160     0.094068    -0.136007
C     -5.481844     0.394071    -0.840062
H     -5.894026    -0.136098     0.025711
H     -6.062599     0.120041    -1.729236
C     -5.453148     1.916719    -0.648050
H     -5.309575     2.163630     0.407826
H     -6.369343     2.403134    -1.000812
