32
Energy = -1142.569816295 Hartree (EUMP2 CORRECTED)
O      0.739899    -0.194418     0.410741
C      1.655485     0.923854     0.422649
H      2.661019     0.507051     0.537725
H      1.429483     1.584902     1.269532
C     -0.413021     0.186313    -0.379232
H     -0.546344    -0.575459    -1.158337
H     -1.302104     0.227649     0.257861
C      1.405752     1.632242    -0.897292
H      1.853358     1.062745    -1.723508
H      1.745181     2.669312    -0.945448
C     -0.118979     1.563542    -0.973996
H     -0.501610     1.675314    -1.994689
O     -0.702801     2.533548    -0.099499
P     -0.934526     4.077555    -0.704145
O     -2.406927     4.387350    -0.829112
O      0.033566     4.293284    -1.855656
O     -0.329587     4.814783     0.672665
C     -0.595564     6.209997     0.829947
H     -1.192192     6.343908     1.741371
H     -1.169376     6.608096    -0.018947
C      0.717896     6.961371     0.965514
H      0.496634     8.029741     1.105856
O      1.415851     6.548121     2.166185
C      2.419321     5.601636     1.760758
H      3.150362     5.548958     2.574250
H      1.961446     4.618543     1.599172
C      2.963326     6.180765     0.460650
H      3.483385     5.436912    -0.153719
H      3.661062     6.996602     0.687568
C      1.686326     6.709153    -0.211275
H      1.270137     5.960851    -0.893799
H      1.869151     7.629027    -0.778520
