32
Energy = -1142.574001769 Hartree (EUMP2 CORRECTED)
O      0.525305    -0.256199     0.808807
C      1.360875     0.911663     0.953756
H      2.330986     0.563072     1.321260
H      0.918455     1.606995     1.679348
C     -0.458549     0.034840    -0.213711
H     -0.432581    -0.791385    -0.934873
H     -1.454801     0.106613     0.235006
C      1.388247     1.530656    -0.433346
H      2.038874     0.943472    -1.095881
H      1.686131     2.581318    -0.449913
C     -0.074672     1.371221    -0.852518
H     -0.223902     1.387555    -1.937579
O     -0.882406     2.387072    -0.245647
P     -1.094899     3.822028    -1.073396
O     -2.242048     4.566061    -0.441186
O     -0.989383     3.530762    -2.558033
O      0.354105     4.554260    -0.591185
C      0.383244     5.980151    -0.481185
H      0.781627     6.231132     0.510950
H     -0.635132     6.383910    -0.557771
C      1.277212     6.614732    -1.535269
H      1.133633     7.703471    -1.489210
O      2.678830     6.407831    -1.251347
C      3.058667     5.143572    -1.835420
H      4.101111     5.254783    -2.155224
H      3.000190     4.359759    -1.071935
C      2.082617     4.871473    -2.994504
H      1.534834     3.938116    -2.848872
H      2.604174     4.824031    -3.957889
C      1.096380     6.051843    -2.945300
H      0.074560     5.716116    -3.144002
H      1.374486     6.824087    -3.673072
