32
Energy = -1142.561344336 Hartree (EUMP2 CORRECTED)
O      1.139118    -0.161438     0.510996
C      1.539351     0.651794    -0.606296
H      2.187392     0.031934    -1.233417
H      2.105396     1.526770    -0.254458
C     -0.025904     0.481972     1.076537
H     -0.687201    -0.316766     1.427047
H      0.263943     1.121670     1.919159
C      0.221516     1.058151    -1.247217
H     -0.193465     0.205636    -1.799817
H      0.267083     1.920165    -1.918308
C     -0.653575     1.357728    -0.022942
H     -1.703741     1.118450    -0.214034
O     -0.553055     2.720171     0.410593
P     -1.462665     3.866093    -0.442561
O     -1.884325     4.894652     0.574497
O     -2.389327     3.146279    -1.392823
O     -0.245549     4.538272    -1.400022
C      1.094789     4.583044    -0.929946
H      1.472957     3.572097    -0.742574
H      1.163394     5.144740     0.011632
C      1.975798     5.223273    -2.011519
H      2.094405     6.295417    -1.814879
O      3.319225     4.670337    -1.935941
C      3.463382     3.773817    -3.044498
H      4.536192     3.627117    -3.201652
H      2.997020     2.800481    -2.819672
C      2.731831     4.475596    -4.179215
H      2.498515     3.812570    -5.020392
H      3.346595     5.305416    -4.548345
C      1.480088     4.983135    -3.451598
H      0.686631     4.230701    -3.450681
H      1.061905     5.892716    -3.892376
