32
Energy = -1142.565586558 Hartree (EUMP2 CORRECTED)
O      1.645580    -0.183745     0.471878
C      2.103514     0.804025    -0.463802
H      2.992798     0.396845    -0.956377
H      2.367407     1.733850     0.058796
C      0.206290    -0.014750     0.636117
H     -0.260770    -0.978394     0.394468
H     -0.010852     0.278218     1.663648
C      0.915424     1.026538    -1.386279
H      0.806496     0.173678    -2.069289
H      0.952421     1.957928    -1.958914
C     -0.230377     1.051065    -0.378225
H     -1.197304     0.780180    -0.828621
O     -0.320561     2.393874     0.098246
P     -1.035826     2.867287     1.556089
O     -0.424372     2.071245     2.695008
O     -2.521513     3.021252     1.364944
O     -0.362774     4.386692     1.552401
C      1.048047     4.495212     1.753502
H      1.500153     4.867960     0.825002
H      1.481365     3.518159     2.006812
C      1.320779     5.465849     2.889382
H      2.408570     5.535988     3.032334
O      0.887929     6.803794     2.552078
C     -0.438610     6.957863     3.091739
H     -0.629737     8.034581     3.148419
H     -1.168738     6.477623     2.431912
C     -0.372637     6.264118     4.449306
H     -1.358103     5.940605     4.801446
H      0.054920     6.948593     5.192080
C      0.574999     5.079589     4.185846
H      0.027556     4.144321     4.038140
H      1.277476     4.932778     5.013983
