32
Energy = -1142.560564366 Hartree (EUMP2 CORRECTED)
O      1.661802    -0.282087    -0.262215
C      1.717744     0.826547    -1.173161
H      2.347114     0.522371    -2.016118
H      2.163789     1.701358    -0.683028
C      0.395704    -0.215625     0.452075
H     -0.126223    -1.165035     0.272017
H      0.589961    -0.066994     1.514031
C      0.265164     1.092197    -1.533120
H     -0.095166     0.320730    -2.227163
H      0.074742     2.084949    -1.950885
C     -0.407392     0.935794    -0.168768
H     -1.465082     0.648887    -0.261022
O     -0.385301     2.206962     0.476035
P      0.101852     2.687141     2.013245
O      1.069471     1.671416     2.590474
O     -1.107965     3.201381     2.746674
O      0.963766     4.039251     1.552909
C      2.353402     3.921225     1.248011
H      2.513939     4.291660     0.225860
H      2.679040     2.875441     1.323916
C      3.162011     4.759950     2.223407
H      4.229456     4.607348     2.009256
O      2.930579     6.171321     2.052165
C      1.771062     6.522260     2.843879
H      1.942085     7.546929     3.193463
H      0.878217     6.491709     2.211785
C      1.673506     5.489345     3.982333
H      0.701389     4.991435     3.961624
H      1.804870     5.959537     4.964245
C      2.806782     4.487035     3.686735
H      2.497764     3.448671     3.842803
H      3.683729     4.698339     4.310829
