32
Energy = -1142.564918318 Hartree (EUMP2 CORRECTED)
O      0.983830    -0.224456    -0.085471
C      1.841185     0.903514    -0.368428
H      2.724491     0.505751    -0.876968
H      2.140955     1.395388     0.566234
C     -0.369498     0.275988     0.025224
H     -1.004968    -0.367305    -0.596986
H     -0.700016     0.231591     1.068778
C      0.974447     1.823643    -1.209435
H      0.874471     1.417782    -2.225390
H      1.302607     2.865802    -1.254598
C     -0.355595     1.730828    -0.456358
H     -1.201081     1.984403    -1.102108
O     -0.304945     2.581711     0.691388
P     -1.054628     4.097473     0.622309
O     -0.362606     4.937702    -0.424007
O     -1.268206     4.482166     2.061624
O     -2.535413     3.707135    -0.096802
C     -3.275704     2.572874     0.342212
H     -3.628855     2.726097     1.371547
H     -2.673415     1.654087     0.327401
C     -4.469714     2.407990    -0.583001
H     -4.999680     1.485529    -0.306472
O     -5.421714     3.477692    -0.393649
C     -5.180402     4.440643    -1.434114
H     -6.075367     5.067141    -1.497746
H     -4.305103     5.050969    -1.184251
C     -4.926098     3.580084    -2.666149
H     -4.407929     4.120524    -3.466033
H     -5.880034     3.204898    -3.055932
C     -4.082988     2.436052    -2.081161
H     -3.019289     2.666435    -2.183046
H     -4.284439     1.476141    -2.569902
