32
Energy = -1142.570448275 Hartree (EUMP2 CORRECTED)
O      1.251273    -0.248313     0.253293
C      1.980903     0.766951    -0.468348
H      2.819087     0.264142    -0.960918
H      2.362548     1.525496     0.227927
C     -0.125189     0.191714     0.357174
H     -0.758189    -0.627212    -0.006579
H     -0.367941     0.414837     1.401165
C      0.955550     1.372079    -1.411625
H      0.759198     0.684283    -2.245443
H      1.216538     2.361956    -1.793248
C     -0.268210     1.452501    -0.497142
H     -1.220187     1.497632    -1.037249
O     -0.162762     2.582808     0.379147
P     -0.866310     4.013305    -0.109360
O     -0.842913     4.956641     1.067883
O     -2.107679     3.717173    -0.924856
O      0.359669     4.468329    -1.183958
C      0.028488     5.510188    -2.104539
H     -0.961499     5.932085    -1.888388
H      0.000790     5.101711    -3.122997
C      1.069091     6.622350    -1.984769
H      1.973156     6.352375    -2.545777
O      0.563303     7.830399    -2.616076
C      0.174660     8.717702    -1.554848
H      0.132419     9.724557    -1.981679
H     -0.819876     8.445704    -1.169301
C      1.242114     8.508776    -0.491462
H      0.945009     8.881783     0.495217
H      2.164397     9.018677    -0.797206
C      1.399818     6.982394    -0.523712
H      0.692849     6.497765     0.158698
H      2.404475     6.651273    -0.243435
