32
Energy = -1142.568922002 Hartree (EUMP2 CORRECTED)
O      1.036751    -0.497704     0.096243
C      1.925450     0.630476    -0.016507
H      2.913427     0.232090    -0.267225
H      1.975958     1.174080     0.936792
C     -0.306592    -0.010068    -0.143902
H     -0.776596    -0.700207    -0.854261
H     -0.874746     0.007121     0.792007
C      1.291420     1.497491    -1.091762
H      1.458100     1.050406    -2.081541
H      1.630358     2.536362    -1.087383
C     -0.187112     1.415143    -0.698721
H     -0.882812     1.589813    -1.528268
O     -0.450962     2.334535     0.361083
P     -1.209978     3.784879    -0.039974
O     -1.340806     4.539859     1.250812
O     -2.325663     3.480815    -1.018025
O      0.034635     4.522091    -0.915867
C     -0.036057     4.597290    -2.335351
H     -1.073166     4.745700    -2.654185
H      0.340719     3.671309    -2.805345
C      0.834343     5.762201    -2.775517
H      0.734403     5.870441    -3.865744
O      0.388910     7.007926    -2.213044
C      1.219278     7.269658    -1.067537
H      1.119323     8.336174    -0.844169
H      0.878449     6.669532    -0.217082
C      2.613135     6.856720    -1.533862
H      3.303666     6.672726    -0.703034
H      3.035938     7.642842    -2.171089
C      2.313667     5.590794    -2.354266
H      2.418846     4.699515    -1.728099
H      2.975419     5.484460    -3.220979
