32
Energy = -1142.569151588 Hartree (EUMP2 CORRECTED)
O      1.621349     0.318282     0.524641
C      2.013771     1.488830    -0.217589
H      2.923655     1.227931    -0.768235
H      2.221744     2.320893     0.467950
C      0.177737     0.350482     0.683696
H     -0.214544    -0.598739     0.295581
H     -0.082994     0.459114     1.740383
C      0.810094     1.802931    -1.092582
H      0.754846     1.095543    -1.930424
H      0.788405     2.828643    -1.471966
C     -0.334634     1.555489    -0.112047
H     -1.291272     1.356262    -0.603409
O     -0.422230     2.701055     0.736176
P     -1.914283     3.262697     1.293918
O     -1.815019     4.767187     1.311659
O     -2.361773     2.396786     2.444994
O     -2.894129     2.786812     0.006263
C     -2.827582     3.572239    -1.181993
H     -1.804713     3.586638    -1.585750
H     -3.126878     4.609691    -0.973376
C     -3.761898     2.932043    -2.189649
H     -3.746410     3.519436    -3.118532
O     -3.283726     1.610909    -2.548302
C     -4.081235     0.658128    -1.824219
H     -3.978990    -0.300005    -2.343508
H     -3.718770     0.571429    -0.792447
C     -5.483714     1.250915    -1.865376
H     -6.149420     0.828172    -1.104655
H     -5.926440     1.080047    -2.854224
C     -5.193451     2.741333    -1.641426
H     -5.206347     2.974478    -0.572804
H     -5.912547     3.392067    -2.151208
