32
Energy = -1142.572205994 Hartree (EUMP2 CORRECTED)
O      1.542778     0.018683    -0.681809
C      2.094111     1.313150    -1.023934
H      2.922825     1.132638    -1.715943
H      2.463568     1.814992    -0.121969
C      0.125034     0.180842    -0.463624
H     -0.405604    -0.464711    -1.178338
H     -0.123855    -0.118860     0.559584
C      0.926726     2.073846    -1.625634
H      0.714696     1.704865    -2.639096
H      1.053405     3.157210    -1.660432
C     -0.210388     1.655534    -0.688422
H     -1.203636     1.814707    -1.128163
O     -0.125763     2.287920     0.590297
P     -0.057990     3.972733     0.695060
O     -0.661122     4.525152    -0.585570
O      1.280442     4.389529     1.240033
O     -1.162050     4.155609     1.928642
C     -2.534913     3.881233     1.642943
H     -2.865193     3.066918     2.301432
H     -2.662129     3.578778     0.594677
C     -3.374369     5.121187     1.900393
H     -4.410333     4.904244     1.603264
O     -3.436960     5.455882     3.300133
C     -2.283159     6.273562     3.602646
H     -2.599909     6.965425     4.391279
H     -1.474154     5.636525     3.973560
C     -1.876134     6.975004     2.292927
H     -0.833510     6.755936     2.052125
H     -1.994742     8.062607     2.364923
C     -2.816467     6.377374     1.227783
H     -2.290302     6.139412     0.297938
H     -3.644512     7.064275     1.014286
