32
Energy = -1142.564981923 Hartree (EUMP2 CORRECTED)
O      1.653209     0.219615    -0.059178
C      1.942258     1.334741    -0.927772
H      2.775166     1.029099    -1.569785
H      2.244566     2.205213    -0.330396
C      0.242210     0.269326     0.273168
H     -0.189371    -0.705319     0.011828
H      0.121224     0.455167     1.345230
C      0.638597     1.602196    -1.660393
H      0.481555     0.842362    -2.437995
H      0.557840     2.598529    -2.102190
C     -0.379602     1.408074    -0.534605
H     -1.379835     1.171991    -0.913077
O     -0.449348     2.550157     0.325898
P     -1.325733     3.889230    -0.239606
O     -1.707665     4.659413     0.997845
O     -2.256405     3.423275    -1.330386
O     -0.078049     4.714174    -1.016684
C      1.014749     5.096979    -0.183246
H      0.734631     5.939734     0.464309
H      1.298215     4.249374     0.456811
C      2.194644     5.487173    -1.059461
H      2.101443     4.957665    -2.015181
O      2.195108     6.903239    -1.392054
C      3.308576     7.514360    -0.736130
H      3.558838     8.420566    -1.296094
H      3.045158     7.796547     0.296902
C      4.388225     6.439779    -0.741954
H      5.201503     6.634023    -0.033054
H      4.813206     6.350687    -1.748624
C      3.553270     5.207705    -0.388547
H      3.428634     5.141247     0.700609
H      3.988494     4.263150    -0.729520
