32
Energy = -1142.565387715 Hartree (EUMP2 CORRECTED)
O      0.990779     0.314851     1.338951
C      2.101732     1.119001     0.913305
H      3.012122     0.557551     1.145827
H      2.112093     2.079140     1.447981
C     -0.169897     0.742437     0.575130
H     -0.670927    -0.162393     0.214591
H     -0.854606     1.314318     1.206284
C      1.847232     1.336006    -0.571254
H      2.059518     0.410522    -1.122328
H      2.413933     2.164310    -1.007659
C      0.347513     1.626711    -0.569813
H     -0.157571     1.382964    -1.509951
O      0.192752     3.014509    -0.248204
P     -1.267350     3.751910    -0.681468
O     -1.395793     4.983650     0.174152
O     -2.298426     2.651215    -0.792127
O     -0.902197     4.305069    -2.227416
C      0.194486     3.918523    -3.035765
H      0.747964     3.071701    -2.610848
H     -0.196677     3.628396    -4.020577
C      1.152997     5.090793    -3.199861
H      1.973895     4.780333    -3.864361
O      0.497928     6.189959    -3.869445
C      0.081714     7.112915    -2.841587
H     -0.102326     8.070707    -3.338883
H     -0.830474     6.749397    -2.356882
C      1.252380     7.124113    -1.867303
H      0.969191     7.486782    -0.873818
H      2.057846     7.755238    -2.263462
C      1.664473     5.644160    -1.850124
H      1.184727     5.125562    -1.017378
H      2.749130     5.515780    -1.752879
