32
Energy = -1142.564377008 Hartree (EUMP2 CORRECTED)
O      0.864193    -0.158376     0.228630
C      1.908878     0.516535    -0.497315
H      2.641680    -0.245088    -0.783607
H      2.391317     1.268624     0.141859
C     -0.364418     0.596362     0.049154
H     -1.127644    -0.104098    -0.313179
H     -0.679326     1.032987     1.001658
C      1.195159     1.182560    -1.663263
H      0.933660     0.431533    -2.420967
H      1.748187     2.007185    -2.121909
C     -0.063267     1.699447    -0.971988
H     -0.904126     1.884282    -1.650985
O      0.300921     2.912301    -0.313592
P     -0.927469     3.998346     0.068598
O     -1.365858     3.796445     1.497305
O     -1.902195     4.010186    -1.094684
O      0.001333     5.387483    -0.024861
C      1.385893     5.441389    -0.341226
H      1.899922     4.515194    -0.066302
H      1.791580     6.270998     0.257543
C      1.663060     5.740639    -1.819717
H      2.663603     6.194684    -1.886038
O      1.747395     4.521744    -2.601386
C      0.556451     4.434611    -3.408106
H      0.788339     3.760863    -4.239935
H     -0.281740     4.043973    -2.818256
C      0.298915     5.876793    -3.817633
H     -0.723223     6.040124    -4.176871
H      1.005971     6.177279    -4.601698
C      0.582312     6.606221    -2.499734
H     -0.314510     6.612394    -1.874301
H      0.920489     7.639241    -2.644392
