32
Energy = -1142.570262064 Hartree (EUMP2 CORRECTED)
O      0.994171     0.024082     0.543667
C      1.591616     1.001518    -0.336835
H      2.530547     0.570021    -0.699794
H      1.801296     1.925696     0.218161
C     -0.446224     0.166686     0.457306
H     -0.858427    -0.802279     0.145287
H     -0.846306     0.444267     1.437389
C      0.545389     1.244399    -1.410320
H      0.514999     0.397663    -2.109763
H      0.674205     2.175690    -1.965455
C     -0.731310     1.261159    -0.567889
H     -1.632357     1.076010    -1.163007
O     -0.874232     2.484151     0.159615
P     -1.328562     3.863622    -0.701004
O     -1.874496     4.836600     0.310633
O     -2.014931     3.409420    -1.966241
O      0.202684     4.392190    -1.178664
C      0.895086     5.288686    -0.309575
H      1.266197     4.750134     0.577730
H      0.238718     6.094706     0.030950
C      2.090909     5.815341    -1.088959
H      1.766423     6.607963    -1.775847
O      3.045463     6.430252    -0.179168
C      4.242249     5.640065    -0.189797
H      5.067651     6.300734     0.093413
H      4.170815     4.823243     0.546111
C      4.319585     5.086399    -1.605508
H      5.001688     4.233319    -1.698991
H      4.650135     5.874960    -2.292681
C      2.852871     4.719365    -1.847877
H      2.625168     3.740966    -1.410842
H      2.569670     4.680833    -2.902943
