32
Energy = -1142.561034506 Hartree (EUMP2 CORRECTED)
O     -0.159089     0.884502    -1.675720
C      0.858802     1.904495    -1.757657
H      1.096077     2.023409    -2.820100
H      1.750452     1.590785    -1.206836
C     -0.956653     1.137215    -0.503860
H     -2.007733     1.126452    -0.823935
H     -0.802745     0.358120     0.244615
C      0.216480     3.129740    -1.123580
H      0.935211     3.867428    -0.755535
H     -0.470246     3.603369    -1.838538
C     -0.577073     2.524209     0.045873
H     -1.479457     3.109059     0.260311
O      0.148459     2.564811     1.266728
P      1.468076     1.693490     1.829553
O      1.103305     1.172468     3.199502
O      2.703685     2.512484     1.533017
O      1.526474     0.405821     0.753399
C      1.219530    -0.919835     1.193481
H      0.717077    -0.885932     2.169194
H      0.559204    -1.371944     0.441090
C      2.478736    -1.765481     1.300462
H      2.197118    -2.733519     1.739105
O      3.037318    -2.077453     0.010208
C      3.902355    -0.979422    -0.358559
H      4.699017    -1.413592    -0.973310
H      3.334770    -0.257111    -0.954448
C      4.404148    -0.344744     0.951475
H      4.180369     0.724674     0.977800
H      5.485081    -0.483177     1.073803
C      3.621257    -1.083515     2.056228
H      3.254408    -0.406538     2.833914
H      4.244319    -1.854451     2.525839
