32
Energy = -1142.568086621 Hartree (EUMP2 CORRECTED)
O      1.285414     0.096129     0.465398
C      1.716146     1.141516    -0.433096
H      2.548921     0.734539    -1.014982
H      2.062838     2.015961     0.131151
C     -0.101696     0.353433     0.793234
H     -0.643203    -0.591785     0.665895
H     -0.186553     0.693875     1.831064
C      0.471976     1.470706    -1.239618
H      0.279366     0.674058    -1.971612
H      0.500706     2.437827    -1.745625
C     -0.605834     1.449019    -0.152534
H     -1.606829     1.248696    -0.549163
O     -0.627986     2.676568     0.588346
P     -1.543992     3.949641    -0.037635
O     -1.705641     4.922591     1.101551
O     -2.649594     3.384638    -0.894204
O     -0.424133     4.590493    -1.125797
C      0.803824     5.049812    -0.564837
H      1.242842     4.298966     0.102497
H      0.604932     5.956254     0.024117
C      1.801721     5.356289    -1.682288
H      2.383975     6.252772    -1.418048
O      2.757944     4.249997    -1.767577
C      2.966765     3.883296    -3.140985
H      4.038413     3.704639    -3.286043
H      2.421645     2.952111    -3.354442
C      2.412144     5.041236    -3.961708
H      2.121060     4.741090    -4.974809
H      3.155239     5.845351    -4.038959
C      1.231395     5.469545    -3.093726
H      0.388481     4.780445    -3.194904
H      0.868894     6.480593    -3.311443
