32
Energy = -1142.564604752 Hartree (EUMP2 CORRECTED)
O      1.422171    -0.001891     0.664512
C      1.722140     0.838680    -0.471611
H      2.506068     0.330594    -1.041620
H      2.082165     1.818992    -0.135025
C      0.051219     0.256606     1.049876
H     -0.462916    -0.711755     1.102502
H      0.022874     0.747470     2.028004
C      0.394775     0.978959    -1.196680
H      0.154255     0.050944    -1.734096
H      0.348818     1.824885    -1.885897
C     -0.558125     1.173291    -0.014930
H     -1.595218     0.907814    -0.251495
O     -0.479437     2.503836     0.482218
P     -1.247522     3.802197    -0.265999
O     -0.166075     4.675844    -0.858550
O     -2.344487     4.312289     0.636113
O     -1.948643     2.938350    -1.537613
C     -3.310882     3.169582    -1.894836
H     -3.746148     3.961501    -1.275838
H     -3.873564     2.237148    -1.717200
C     -3.420676     3.523082    -3.370367
H     -4.475146     3.416348    -3.663780
O     -3.081091     4.887030    -3.650396
C     -1.646312     4.961438    -3.849026
H     -1.489094     5.735019    -4.608784
H     -1.155046     5.247232    -2.914812
C     -1.193686     3.559934    -4.302883
H     -0.450135     3.173379    -3.603738
H     -0.755593     3.576451    -5.307952
C     -2.476971     2.709383    -4.262703
H     -2.298614     1.703282    -3.868056
H     -2.916695     2.620456    -5.263607
