32
Energy = -1142.570412295 Hartree (EUMP2 CORRECTED)
O      1.635066     0.501559     0.193817
C      2.029688     1.812642    -0.276427
H      2.943511     1.690916    -0.870212
H      2.235208     2.455207     0.586804
C      0.198266     0.355651     0.038157
H     -0.000098    -0.326784    -0.803578
H     -0.229965    -0.047769     0.954529
C      0.842027     2.326759    -1.082590
H      0.851328     1.915611    -2.101051
H      0.786361     3.418422    -1.130269
C     -0.330173     1.745450    -0.298294
H     -1.256692     1.684324    -0.888630
O     -0.522359     2.603893     0.822140
P     -1.565368     2.267044     2.115042
O     -1.817545     0.774691     2.163681
O     -2.646790     3.313509     2.130991
O     -0.490223     2.707942     3.311266
C      0.684272     1.914572     3.490460
H      0.977302     1.405848     2.564893
H      0.493761     1.154602     4.264511
C      1.813909     2.829432     3.933624
H      2.646390     2.208394     4.291596
O      2.351498     3.603719     2.846542
C      1.514419     4.773587     2.693162
H      2.171320     5.569136     2.323416
H      0.731927     4.564640     1.957640
C      0.915582     5.069547     4.082497
H     -0.173908     5.102162     4.021094
H      1.278488     6.023363     4.483771
C      1.374625     3.883902     4.954770
H      0.575463     3.516986     5.606695
H      2.234809     4.165603     5.574042
