32
Energy = -1142.560162983 Hartree (EUMP2 CORRECTED)
O      1.973699     0.555174     0.437290
C      1.049293     0.006704    -0.534154
H      1.022884    -1.075451    -0.371382
H      1.406399     0.219572    -1.548950
C      1.502244     1.869252     0.813517
H      1.302602     1.863236     1.894201
H      2.275043     2.611230     0.588169
C     -0.265744     0.718621    -0.270612
H     -0.754155     0.307287     0.623357
H     -0.953253     0.699195    -1.120460
C      0.231570     2.137668     0.014427
H     -0.496230     2.755611     0.555382
O      0.616254     2.797944    -1.195708
P     -0.675191     3.329880    -2.170293
O     -1.635388     4.081305    -1.272488
O     -1.108685     2.179951    -3.050698
O      0.171854     4.445932    -3.064793
C      1.590178     4.523684    -3.135715
H      2.077909     3.652158    -2.686109
H      1.835117     4.552316    -4.206643
C      2.089860     5.818716    -2.471074
H      2.997874     6.133436    -3.007811
O      1.166378     6.904199    -2.599270
C      0.455634     6.980989    -1.346405
H     -0.010859     7.970511    -1.314447
H     -0.312253     6.199765    -1.295098
C      1.554215     6.770329    -0.307290
H      1.160058     6.487252     0.675465
H      2.141912     7.690334    -0.198330
C      2.387003     5.653852    -0.960907
H      2.036770     4.674351    -0.624484
H      3.458068     5.737086    -0.745427
