32
Energy = -1142.569426946 Hartree (EUMP2 CORRECTED)
O      0.702206    -0.561080     0.176417
C      1.823194     0.339003     0.101048
H      2.702255    -0.267846    -0.136299
H      1.972459     0.847115     1.063745
C     -0.490988     0.227914    -0.053490
H     -1.114939    -0.332897    -0.758470
H     -1.032567     0.379571     0.886103
C      1.423379     1.337630    -0.973453
H      1.508797     0.874453    -1.965847
H      1.990068     2.272363    -0.946819
C     -0.043433     1.587679    -0.609465
H     -0.670594     1.903982    -1.450568
O     -0.102430     2.552620     0.440335
P     -0.688721     4.085453     0.073588
O     -0.606267     4.884333     1.342227
O     -1.919229     3.917057    -0.793750
O      0.542035     4.675914    -0.918322
C      0.511383     4.484105    -2.331443
H     -0.497590     4.211511    -2.663865
H      1.217519     3.682168    -2.602647
C      0.944172     5.773928    -3.024437
H      1.316582     5.531955    -4.028812
O     -0.153765     6.678521    -3.234327
C     -0.365723     7.358405    -1.976004
H     -0.821101     8.322629    -2.223889
H     -1.057384     6.778013    -1.357110
C      1.021020     7.476851    -1.313380
H      0.983735     7.096759    -0.290207
H      1.369500     8.516229    -1.296228
C      1.934217     6.597932    -2.192982
H      2.599364     5.967823    -1.594887
H      2.539235     7.214815    -2.868411
