32
Energy = -1142.572351790 Hartree (EUMP2 CORRECTED)
O      1.334018    -0.329582     0.771845
C      2.163617     0.575217     0.029191
H      3.054985     0.017539    -0.274922
H      2.457262     1.431388     0.653246
C     -0.012340     0.222202     0.749580
H     -0.696619    -0.611364     0.560959
H     -0.239965     0.679909     1.716520
C      1.267712     1.025174    -1.114471
H      1.158881     0.208636    -1.839753
H      1.599827     1.933325    -1.626502
C     -0.048719     1.269199    -0.381885
H     -0.935827     1.141334    -1.013759
O     -0.011475     2.619432     0.091251
P     -1.267697     3.102747     1.109461
O     -0.793402     2.990210     2.544491
O     -2.548517     2.479433     0.608682
O     -1.280584     4.705860     0.671843
C     -0.356756     5.605751     1.291001
H      0.224193     6.090393     0.495326
H      0.317111     5.061949     1.965303
C     -1.111381     6.659989     2.082846
H     -0.376005     7.298601     2.592774
O     -1.866228     7.544049     1.231161
C     -3.153961     6.928530     0.996425
H     -3.871542     7.751821     0.904234
H     -3.119957     6.362466     0.060260
C     -3.432702     5.998442     2.192420
H     -3.610772     4.977311     1.847643
H     -4.307939     6.329289     2.763998
C     -2.148641     6.072331     3.042027
H     -1.841750     5.092216     3.420209
H     -2.282636     6.760792     3.885269
