32
Energy = -1142.566780758 Hartree (EUMP2 CORRECTED)
O      2.098785     1.042050     1.349934
C      2.191253     2.273313     0.604375
H      3.256146     2.464140     0.439666
H      1.749232     3.099599     1.175993
C      0.808973     0.451869     1.057390
H      0.986635    -0.591922     0.770118
H      0.167548     0.491560     1.943500
C      1.387055     2.008595    -0.657660
H      1.953305     1.359726    -1.339842
H      1.081544     2.917805    -1.181172
C      0.179152     1.264886    -0.078567
H     -0.330776     0.633296    -0.813628
O     -0.728869     2.190823     0.506979
P     -1.968951     2.920147    -0.373919
O     -1.651230     4.396835    -0.473430
O     -3.279949     2.366540     0.120001
O     -1.707295     2.225454    -1.885181
C     -1.115271     2.969291    -2.947923
H     -0.289333     2.371776    -3.358173
H     -0.735416     3.932361    -2.580494
C     -2.146662     3.210085    -4.039091
H     -1.655588     3.734142    -4.872264
O     -2.614445     1.956170    -4.585658
C     -3.847541     1.642221    -3.906103
H     -4.368533     0.908210    -4.529526
H     -3.634474     1.222515    -2.917593
C     -4.560561     2.984522    -3.791372
H     -5.302089     2.995743    -2.985875
H     -5.062290     3.219454    -4.738217
C     -3.398881     3.957824    -3.529168
H     -3.300364     4.184961    -2.464772
H     -3.533240     4.907167    -4.059906
