32
Energy = -1142.573717785 Hartree (EUMP2 CORRECTED)
O      1.756965     1.093575     0.808838
C      1.795399     2.535278     0.769812
H      2.844176     2.836690     0.664703
H      1.396071     2.937068     1.710355
C      0.616636     0.630704     0.029729
H      0.994068     0.144360    -0.881694
H      0.042539    -0.080395     0.625749
C      0.913330     2.932736    -0.405828
H      1.463931     2.837346    -1.350951
H      0.499138     3.941807    -0.323231
C     -0.184153     1.876622    -0.331487
H     -0.735930     1.740647    -1.269904
O     -1.087392     2.297945     0.692804
P     -2.512875     1.417582     0.923099
O     -2.969870     0.962512    -0.442365
O     -3.323957     2.215868     1.913002
O     -1.904741     0.050571     1.697825
C     -2.244843    -0.193004     3.062951
H     -2.654778    -1.209732     3.123051
H     -3.003365     0.526541     3.394311
C     -1.039719    -0.100995     3.979101
H     -1.405056    -0.212198     5.016283
O     -0.131979    -1.203787     3.728076
C      1.213298    -0.700572     3.595432
H      1.880187    -1.407389     4.103509
H      1.483344    -0.638526     2.536179
C      1.194771     0.689836     4.220087
H      1.993601     1.327110     3.825631
H      1.301581     0.623927     5.311534
C     -0.205367     1.169443     3.836790
H     -0.227169     1.512179     2.798831
H     -0.587403     1.977211     4.471086
