32
Energy = -1142.564315788 Hartree (EUMP2 CORRECTED)
O      1.460569     0.143114    -0.280842
C      1.627279     1.484741    -0.795632
H      2.424115     1.438319    -1.544206
H      1.912220     2.170704     0.011072
C      0.089328     0.007401     0.154490
H     -0.327832    -0.881502    -0.337819
H      0.051312    -0.116513     1.241969
C      0.260611     1.853356    -1.345859
H      0.080784     1.331431    -2.296377
H      0.119468     2.931171    -1.467073
C     -0.648718     1.286275    -0.250769
H     -1.656164     1.064011    -0.613413
O     -0.677414     2.128559     0.898391
P     -1.276218     3.718760     0.872836
O     -0.217176     4.617670     0.282988
O     -1.939457     3.899118     2.212585
O     -2.451686     3.642667    -0.335047
C     -3.543694     2.736828    -0.169733
H     -4.231919     3.126848     0.591692
H     -3.212963     1.745359     0.166105
C     -4.278623     2.628788    -1.495208
H     -5.064390     1.866431    -1.395713
O     -4.969629     3.864664    -1.791826
C     -4.155466     4.584261    -2.732876
H     -4.800324     5.335616    -3.198898
H     -3.320907     5.069628    -2.212686
C     -3.664788     3.497687    -3.681498
H     -2.792551     3.802044    -4.270980
H     -4.472820     3.217289    -4.368051
C     -3.349853     2.357171    -2.701886
H     -2.306809     2.419621    -2.384736
H     -3.527376     1.367073    -3.137111
