32
Energy = -1142.569077019 Hartree (EUMP2 CORRECTED)
O      0.951839     0.445593     1.233755
C      1.681218     0.896125     0.067867
H      2.377122     0.095167    -0.201641
H      2.246862     1.804272     0.313315
C     -0.386485     0.993220     1.168665
H     -1.095176     0.154025     1.150224
H     -0.571538     1.614345     2.050783
C      0.617786     1.189021    -0.976096
H      0.247379     0.253003    -1.416525
H      0.927890     1.880316    -1.764293
C     -0.466745     1.826058    -0.106707
H     -1.467140     1.802651    -0.558804
O     -0.111504     3.167837     0.234333
P     -0.566601     4.355400    -0.895167
O     -2.070261     4.489405    -0.881538
O      0.229392     4.104973    -2.158553
O      0.051268     5.648220    -0.053606
C      1.181811     5.570182     0.812095
H      1.959119     6.236940     0.415522
H      1.573844     4.547401     0.865520
C      0.780210     6.040361     2.201272
H      1.665148     5.991738     2.852789
O      0.391290     7.433842     2.171369
C     -1.048276     7.462918     2.129955
H     -1.350620     8.468564     2.439496
H     -1.398894     7.254256     1.113116
C     -1.460456     6.357143     3.093162
H     -2.488628     6.015679     2.931430
H     -1.364145     6.713973     4.126251
C     -0.423609     5.266380     2.784360
H     -0.807865     4.561573     2.043875
H     -0.136812     4.699048     3.677455
