32
Energy = -1142.568139588 Hartree (EUMP2 CORRECTED)
O      0.556933    -0.218929     0.377781
C      1.788246     0.514615     0.498442
H      2.599317    -0.220870     0.524748
H      1.792917     1.102417     1.426218
C     -0.402448     0.626794    -0.315897
H     -0.779928     0.054604    -1.173360
H     -1.228872     0.891450     0.348741
C      1.804239     1.430889    -0.716490
H      2.046020     0.857939    -1.621190
H      2.487087     2.280978    -0.623209
C      0.349553     1.887746    -0.756383
H      0.025059     2.223774    -1.743479
O      0.210168     2.923874     0.226570
P     -1.046024     4.036398     0.069500
O     -0.615966     5.224539     0.890010
O     -2.368914     3.317139     0.183043
O     -0.954627     4.420404    -1.575581
C      0.294778     4.691224    -2.199170
H      1.098876     4.065971    -1.795250
H      0.579124     5.745106    -2.036182
C      0.120525     4.435726    -3.686106
H      1.058961     4.678733    -4.204589
O     -0.116300     3.029495    -3.935368
C     -1.535032     2.862164    -4.121720
H     -1.673352     1.909446    -4.642355
H     -2.040591     2.842752    -3.148609
C     -1.936533     4.086820    -4.933922
H     -3.011391     4.294027    -4.888905
H     -1.650522     3.942542    -5.982878
C     -1.090795     5.189886    -4.280640
H     -1.651009     5.672191    -3.474728
H     -0.776368     5.957095    -4.997052
