32
Energy = -1142.573455601 Hartree (EUMP2 CORRECTED)
O      2.147430     0.864482    -0.617700
C      2.323783     2.285667    -0.714539
H      3.163557     2.460075    -1.393915
H      2.551838     2.714757     0.272360
C      0.816060     0.660804    -0.075088
H      0.411762    -0.232448    -0.560988
H      0.865630     0.503503     1.005809
C      0.974837     2.774350    -1.219117
H      0.869511     2.517012    -2.280534
H      0.787662     3.842472    -1.078232
C      0.010169     1.945029    -0.369733
H     -0.931161     1.740405    -0.896075
O     -0.255235     2.674803     0.829234
P     -1.670557     2.310384     1.652655
O     -2.860185     2.715451     0.805749
O     -1.454707     2.736522     3.079571
O     -1.565656     0.626055     1.580745
C     -2.584609    -0.134061     0.928892
H     -2.088065    -0.850990     0.259544
H     -3.233731     0.531646     0.345366
C     -3.414447    -0.906094     1.940319
H     -4.225044    -1.414578     1.398822
O     -2.659017    -1.954779     2.576306
C     -1.979792    -1.370438     3.712317
H     -1.904228    -2.166112     4.461995
H     -0.976154    -1.053616     3.410915
C     -2.823120    -0.166232     4.168449
H     -2.220001     0.744578     4.196249
H     -3.255369    -0.334423     5.161959
C     -3.926024    -0.044774     3.097749
H     -4.098621     0.993036     2.795283
H     -4.871845    -0.463675     3.462037
