32
Energy = -1142.568570077 Hartree (EUMP2 CORRECTED)
O      0.827528    -0.301793    -0.499136
C      1.500080     0.755488    -1.222060
H      2.018984     0.282576    -2.061590
H      2.226472     1.255067    -0.569409
C     -0.354666     0.263299     0.115088
H     -1.218122    -0.326649    -0.219993
H     -0.267117     0.204648     1.205426
C      0.388375     1.711924    -1.617636
H     -0.194349     1.298970    -2.452085
H      0.730951     2.718008    -1.873887
C     -0.451049     1.718001    -0.339365
H     -1.478245     2.061237    -0.504371
O      0.176225     2.519177     0.664628
P      0.001961     4.196725     0.531902
O     -1.247380     4.428265    -0.302214
O      1.331646     4.829156     0.225029
O     -0.357142     4.529021     2.129290
C     -1.029989     3.608012     2.980933
H     -0.347745     3.332312     3.796108
H     -1.312973     2.695595     2.439807
C     -2.276333     4.262234     3.553816
H     -2.778227     3.537507     4.212269
O     -1.927167     5.381780     4.402105
C     -2.106180     6.572699     3.614456
H     -2.178859     7.407878     4.318624
H     -1.247216     6.713013     2.948332
C     -3.381001     6.300036     2.826045
H     -3.480345     6.939962     1.942385
H     -4.252882     6.455215     3.473856
C     -3.215682     4.817064     2.459699
H     -2.751902     4.715500     1.472684
H     -4.173910     4.284526     2.450394
