32
Energy = -1142.558581230 Hartree (EUMP2 CORRECTED)
O      1.775945     0.780036    -0.914941
C      2.200891     2.151184    -0.753502
H      3.098400     2.280998    -1.367251
H      2.424247     2.349260     0.302386
C      0.338603     0.737231    -0.727761
H     -0.106329     0.337585    -1.650477
H      0.104891     0.084359     0.110307
C      0.998026     2.957593    -1.217286
H      0.902016     2.901904    -2.310898
H      1.003708     4.002756    -0.895203
C     -0.134817     2.185396    -0.534172
H     -1.106504     2.338105    -1.024963
O     -0.269545     2.702933     0.787302
P     -0.023380     2.084493     2.331281
O     -1.107948     2.694907     3.184427
O      1.453443     2.133968     2.635049
O     -0.356866     0.450727     2.118302
C     -1.723854     0.045706     2.084511
H     -2.143279     0.198852     1.077357
H     -2.312211     0.632526     2.803279
C     -1.762832    -1.430203     2.430439
H     -2.806531    -1.774740     2.414626
O     -1.075092    -2.205360     1.418667
C      0.236620    -2.504371     1.933218
H      0.613687    -3.355059     1.357030
H      0.897607    -1.639212     1.806284
C     -0.010563    -2.801261     3.407119
H      0.897647    -2.723937     4.014982
H     -0.420785    -3.812860     3.515413
C     -1.060095    -1.740483     3.770677
H     -0.575116    -0.834742     4.145729
H     -1.770083    -2.094691     4.526260
