32
Energy = -1142.560701396 Hartree (EUMP2 CORRECTED)
O      1.044480     0.201013     0.717492
C      1.724914     1.457567     0.481098
H      2.796364     1.262760     0.592189
H      1.404973     2.201796     1.221161
C     -0.165001     0.195216    -0.077662
H     -0.132965    -0.688464    -0.729322
H     -1.038795     0.140226     0.579689
C      1.297307     1.872630    -0.914772
H      1.815394     1.258468    -1.665408
H      1.448133     2.932226    -1.135977
C     -0.182463     1.490618    -0.885472
H     -0.615064     1.370689    -1.885076
O     -0.963078     2.436383    -0.137166
P     -1.339544     3.880495    -0.872934
O     -2.497693     4.500926    -0.135011
O     -1.329102     3.701577    -2.382783
O      0.085713     4.677049    -0.438141
C      0.164704     6.018299    -0.900858
H     -0.823489     6.390533    -1.200677
H      0.497844     6.625358    -0.048325
C      1.181382     6.180890    -2.069585
H      1.976891     6.865294    -1.738786
O      1.857259     4.960893    -2.418928
C      1.419425     4.562318    -3.734205
H      2.214083     3.933601    -4.149311
H      0.480472     4.001721    -3.650216
C      1.219394     5.884950    -4.463230
H      0.606273     5.787615    -5.366692
H      2.190573     6.315636    -4.738956
C      0.536686     6.710284    -3.367576
H     -0.536397     6.489157    -3.363432
H      0.668764     7.792238    -3.483839
