32
Energy = -1142.561179331 Hartree (EUMP2 CORRECTED)
O      1.618722     0.194175    -0.011576
C      2.047458     1.405850    -0.668696
H      2.905268     1.139946    -1.294484
H      2.350720     2.153246     0.076514
C      0.203875     0.327301     0.271739
H     -0.294210    -0.564205    -0.129557
H      0.044124     0.388920     1.353059
C      0.822072     1.877181    -1.432491
H      0.668508     1.251509    -2.322250
H      0.845013     2.931517    -1.716955
C     -0.280501     1.611921    -0.404048
H     -1.278116     1.508243    -0.845851
O     -0.302050     2.642477     0.590285
P     -1.323784     3.946979     0.338311
O     -1.314381     4.746948     1.610961
O     -2.571200     3.466151    -0.376699
O     -0.378459     4.752371    -0.817330
C     -1.057153     5.254876    -1.968073
H     -1.460952     4.434467    -2.573543
H     -1.897605     5.895205    -1.669323
C     -0.037648     6.040978    -2.783880
H      0.951513     5.917490    -2.313508
O      0.012106     5.519629    -4.132683
C      0.784734     6.463063    -4.882124
H      1.849793     6.190446    -4.830145
H      0.456600     6.392840    -5.923322
C      0.536685     7.850815    -4.239960
H      0.041885     8.542315    -4.929949
H      1.482813     8.310577    -3.933855
C     -0.337065     7.517929    -3.020853
H     -1.401525     7.622720    -3.260387
H     -0.119510     8.134678    -2.142368
