32
Energy = -1142.564333015 Hartree (EUMP2 CORRECTED)
O      1.025280    -0.528889     0.226242
C      1.990064     0.516468     0.007296
H      2.943845     0.027496    -0.214422
H      2.092414     1.138473     0.907135
C     -0.284586     0.027913    -0.054556
H     -0.803738    -0.685566    -0.705157
H     -0.844681     0.161765     0.876375
C      1.403262     1.327167    -1.137593
H      1.522989     0.780800    -2.083163
H      1.825013     2.331032    -1.233796
C     -0.070326     1.391102    -0.726637
H     -0.767282     1.545452    -1.557463
O     -0.234607     2.420949     0.247109
P     -1.255627     3.723506    -0.092073
O     -1.529946     4.378504     1.229735
O     -2.288739     3.248716    -1.094165
O     -0.191479     4.744449    -0.908445
C     -0.080860     4.626696    -2.320854
H     -1.071447     4.748098    -2.775299
H      0.316052     3.646622    -2.632217
C      0.871291     5.716845    -2.800578
H      0.723598     5.835553    -3.884426
O      0.592202     7.000324    -2.225077
C      1.534902     7.186515    -1.156393
H      1.552280     8.257659    -0.933881
H      1.210550     6.621398    -0.274993
C      2.840991     6.643392    -1.732587
H      3.587458     6.415715    -0.963033
H      3.268564     7.375948    -2.427690
C      2.350885     5.393993    -2.482861
H      2.405917     4.517707    -1.828179
H      2.929642     5.183078    -3.388466
