32
Energy = -1142.562324934 Hartree (EUMP2 CORRECTED)
O      1.245506    -0.112113    -1.097083
C      0.164523     0.119125    -2.036028
H     -0.017721    -0.826866    -2.556705
H      0.465094     0.884837    -2.760666
C      0.962874     0.623262     0.115383
H      0.782269    -0.096028     0.927649
H      1.825686     1.249610     0.363622
C     -1.003111     0.609279    -1.195868
H     -1.505798    -0.230324    -0.696543
H     -1.730603     1.193434    -1.765700
C     -0.272420     1.466318    -0.160618
H     -0.871842     1.674591     0.734143
O      0.179740     2.690091    -0.740167
P     -1.020375     3.845621    -1.065414
O     -1.975373     3.850178     0.106865
O     -1.480119     3.659453    -2.494342
O     -0.027469     5.185785    -1.003551
C      1.371532     5.130885    -0.739935
H      1.647123     6.135332    -0.400844
H      1.600373     4.406523     0.049629
C      2.167026     4.832065    -2.011618
H      1.546424     5.109217    -2.875613
O      3.356047     5.684414    -1.988296
C      4.460863     4.992122    -2.599084
H      4.885121     5.631317    -3.383330
H      5.230862     4.824348    -1.832652
C      3.901005     3.670930    -3.126728
H      4.645078     2.866204    -3.125530
H      3.530458     3.790844    -4.152096
C      2.734139     3.429183    -2.172785
H      3.093804     3.063115    -1.202512
H      1.987123     2.723107    -2.540306
