32
Energy = -1142.566328006 Hartree (EUMP2 CORRECTED)
O      1.232780    -0.070170    -0.018949
C      1.845888     1.106439    -0.585985
H      2.802233     0.789276    -1.015113
H      2.026741     1.851535     0.200386
C     -0.204868     0.117100    -0.062436
H     -0.632414    -0.753680    -0.575642
H     -0.600767     0.181809     0.956104
C      0.830611     1.616905    -1.594443
H      0.835864     0.978993    -2.488774
H      0.957080     2.662746    -1.885176
C     -0.473185     1.418689    -0.817540
H     -1.353361     1.368895    -1.467596
O     -0.656614     2.447586     0.159793
P     -1.334847     3.908370    -0.360294
O     -1.786915     4.613308     0.891169
O     -2.167198     3.628710    -1.586658
O      0.059855     4.672207    -0.924978
C      0.940673     5.174630     0.085322
H      0.479218     6.026571     0.596526
H      1.156235     4.399364     0.832906
C      2.211091     5.624932    -0.621281
H      1.975017     5.815036    -1.680950
O      2.671423     6.851270    -0.004464
C      4.001157     7.070460    -0.488673
H      3.965227     7.699106    -1.391098
H      4.541536     7.612919     0.292898
C      4.596497     5.677170    -0.804445
H      5.490539     5.462480    -0.209658
H      4.878092     5.606491    -1.860953
C      3.435982     4.725728    -0.481171
H      3.490267     4.377708     0.556614
H      3.397903     3.848990    -1.136649
