32
Energy = -1142.566807878 Hartree (EUMP2 CORRECTED)
O      1.725978     0.030167    -0.359867
C      1.631743     0.894037    -1.513847
H      1.961751     0.306336    -2.376208
H      2.287092     1.765721    -1.387920
C      0.740507     0.475093     0.603977
H      0.133535    -0.396839     0.878835
H      1.241574     0.874675     1.491702
C      0.174221     1.319474    -1.551891
H     -0.450986     0.491545    -1.913144
H     -0.018150     2.219490    -2.140834
C     -0.094164     1.566430    -0.066473
H     -1.156150     1.522693     0.197939
O      0.447806     2.829973     0.341960
P     -0.514053     4.182363     0.178977
O      0.113472     5.296621     0.982174
O     -1.968662     3.780713     0.300690
O     -0.171485     4.464762    -1.454043
C     -0.549981     5.761150    -1.925042
H     -0.631826     5.680188    -3.014334
H     -1.532896     6.041575    -1.521622
C      0.501044     6.822707    -1.601123
H      1.377040     6.324079    -1.162524
O      0.883431     7.478716    -2.841652
C      1.621099     8.647416    -2.460186
H      2.696824     8.416134    -2.452230
H      1.435157     9.408377    -3.225403
C      1.126360     9.052083    -1.049665
H      0.727080    10.072169    -1.027855
H      1.946458     9.002356    -0.324978
C      0.064173     7.991788    -0.731538
H     -0.928678     8.323736    -1.061551
H      0.012419     7.699803     0.320157
