32
Energy = -1142.567311375 Hartree (EUMP2 CORRECTED)
O      0.788466    -0.231708    -0.005444
C      1.632090     0.791819    -0.581564
H      2.352700     0.279028    -1.225904
H      2.163047     1.332065     0.212575
C     -0.497715     0.367442     0.278055
H     -1.264837    -0.256607    -0.198722
H     -0.661792     0.392757     1.360966
C      0.666318     1.710894    -1.308114
H      0.318410     1.236981    -2.236002
H      1.046843     2.710010    -1.530752
C     -0.473982     1.786945    -0.294531
H     -1.426252     2.075951    -0.754862
O     -0.133592     2.678751     0.772030
P     -0.481293     4.319921     0.549215
O     -0.640518     4.591472    -0.928379
O      0.452791     5.054895     1.473058
O     -2.042350     4.364784     1.182454
C     -2.471934     3.490440     2.216191
H     -2.217154     3.912638     3.199051
H     -1.990785     2.506582     2.124592
C     -3.978111     3.328574     2.103337
H     -4.310262     2.611699     2.867795
O     -4.663584     4.565648     2.404671
C     -4.983770     5.183213     1.145846
H     -5.768627     5.919317     1.346300
H     -4.095991     5.675620     0.733074
C     -5.426263     4.014407     0.273201
H     -5.389362     4.242958    -0.797667
H     -6.451299     3.726420     0.536660
C     -4.425775     2.921846     0.680339
H     -3.562605     2.934431     0.009286
H     -4.870845     1.920467     0.665772
