32
Energy = -1142.565243598 Hartree (EUMP2 CORRECTED)
O      1.650344     0.318647     0.059372
C      1.916578     1.466639    -0.779039
H      2.749767     1.193391    -1.434283
H      2.200122     2.327329    -0.159731
C      0.241865     0.335129     0.397579
H     -0.182161    -0.631587     0.095628
H      0.121891     0.473043     1.477023
C      0.604276     1.731709    -1.495043
H      0.447709     0.984907    -2.285726
H      0.515861     2.738985    -1.909407
C     -0.395504     1.498171    -0.360582
H     -1.408920     1.281010    -0.715482
O     -0.431867     2.616267     0.536134
P     -1.395803     3.917810     0.121385
O     -1.549490     4.786293     1.345901
O     -2.551329     3.418294    -0.718928
O     -0.272434     4.663093    -0.904362
C     -0.339209     6.074397    -0.996965
H     -1.158593     6.377276    -1.670968
H     -0.522612     6.516723    -0.007042
C      0.972686     6.594559    -1.544817
H      1.793157     6.219944    -0.923049
O      1.231116     6.089914    -2.880823
C      0.905658     7.130446    -3.801963
H      1.406019     6.896056    -4.746212
H     -0.181765     7.172706    -3.977371
C      1.399297     8.397112    -3.114673
H      0.978211     9.317852    -3.535026
H      2.491602     8.447019    -3.188057
C      0.960596     8.135784    -1.669195
H     -0.056562     8.515115    -1.505316
H      1.611495     8.612408    -0.929220
