32
Energy = -1142.573143312 Hartree (EUMP2 CORRECTED)
O      0.046659    -0.449524     0.462369
C      1.239715     0.350749     0.299092
H      2.089718    -0.337344     0.343652
H      1.314183     1.084609     1.111668
C     -1.030810     0.211956    -0.244227
H     -1.456818    -0.511864    -0.951353
H     -1.798203     0.533113     0.467274
C      1.051648     1.046111    -1.037942
H      1.224391     0.340538    -1.862143
H      1.668102     1.935668    -1.186294
C     -0.428413     1.419288    -0.961310
H     -0.873596     1.602260    -1.944791
O     -0.609456     2.550543    -0.105929
P     -0.390244     4.081442    -0.758387
O     -1.606140     4.925579    -0.456670
O      0.190909     3.910691    -2.146504
O      0.853883     4.561385     0.257684
C      0.699118     5.708627     1.095599
H      1.051694     5.431637     2.097846
H     -0.358898     5.996288     1.143167
C      1.528477     6.876654     0.589020
H      1.310379     7.746937     1.224549
O      2.944203     6.644645     0.730213
C      3.383818     5.936198    -0.450766
H      4.423210     6.240625    -0.618047
H      3.343232     4.858129    -0.262801
C      2.429756     6.332288    -1.592048
H      1.987544     5.448080    -2.057608
H      2.948544     6.916306    -2.361547
C      1.336955     7.172416    -0.900757
H      0.331713     6.912422    -1.247305
H      1.499598     8.242937    -1.074745
