32
Energy = -1142.572258517 Hartree (EUMP2 CORRECTED)
O      1.049661     0.151155     0.488843
C      1.747439     1.160423    -0.273872
H      2.554810     0.649661    -0.807946
H      2.171108     1.916645     0.400336
C     -0.309358     0.614743     0.679262
H     -0.979887    -0.197867     0.373003
H     -0.473764     0.857217     1.734760
C      0.676607     1.767531    -1.162131
H      0.426295     1.071984    -1.975166
H      0.909835     2.750149    -1.578455
C     -0.493040     1.868037    -0.182947
H     -1.472828     1.880249    -0.671022
O     -0.342600     3.002331     0.681956
P     -0.901324     4.492015     0.131947
O     -0.627142     4.596162    -1.355338
O     -0.486010     5.491805     1.172504
O     -2.559814     4.241279     0.323217
C     -3.394091     3.995492    -0.803394
H     -2.814334     3.609284    -1.648395
H     -3.871515     4.936996    -1.124835
C     -4.471143     3.009108    -0.388105
H     -5.162648     2.862949    -1.230458
O     -3.895310     1.707838    -0.121054
C     -3.765286     1.586470     1.307135
H     -3.667951     0.518413     1.526619
H     -2.875127     2.127163     1.650343
C     -5.043555     2.221774     1.839552
H     -4.970789     2.506964     2.895028
H     -5.878551     1.520208     1.722797
C     -5.205736     3.430164     0.905702
H     -4.715750     4.309761     1.332896
H     -6.256803     3.673513     0.713330
