32
Energy = -1142.572919500 Hartree (EUMP2 CORRECTED)
O      0.997416     0.675398     1.437885
C      1.884847     1.475653     0.622689
H      2.850847     0.960820     0.604829
H      2.007376     2.469545     1.072613
C     -0.346449     0.823946     0.919364
H     -0.713137    -0.173982     0.643318
H     -0.992663     1.256442     1.689898
C      1.195163     1.577035    -0.726639
H      1.313018     0.638494    -1.285739
H      1.514129     2.424216    -1.339745
C     -0.260360     1.751507    -0.289359
H     -0.990849     1.492554    -1.067470
O     -0.490256     3.082448     0.176956
P     -0.864000     4.238124    -1.014378
O     -2.227953     3.917352    -1.568013
O      0.369327     4.434800    -1.874265
O     -1.012545     5.496770     0.059890
C      0.138622     6.282604     0.379824
H      0.048600     7.254926    -0.121423
H      1.054849     5.792537     0.025039
C      0.200096     6.489568     1.882690
H      1.089041     7.095696     2.110921
O     -0.930195     7.269047     2.343261
C     -1.886941     6.337336     2.878324
H     -2.566467     6.913835     3.514337
H     -2.443758     5.862326     2.062109
C     -1.027962     5.326282     3.627808
H     -1.546311     4.378859     3.813540
H     -0.718036     5.751129     4.590679
C      0.170013     5.165898     2.679262
H      0.011515     4.323591     2.000757
H      1.108763     5.004395     3.221479
