32
Energy = -1142.570775881 Hartree (EUMP2 CORRECTED)
O      1.783437    -0.431796    -0.096057
C      0.926675     0.050560     0.955852
H      1.489334     0.699130     1.640597
H      0.560285    -0.828256     1.495989
C      1.774150     0.556296    -1.160025
H      2.752375     1.041459    -1.229876
H      1.552865     0.026097    -2.094240
C     -0.145764     0.844797     0.225699
H     -0.698790     1.543531     0.860186
H     -0.845708     0.159268    -0.270455
C      0.698035     1.590070    -0.806693
H      0.149759     1.915145    -1.695838
O      1.290635     2.711354    -0.149662
P      1.489104     4.159091    -0.992239
O      1.118902     3.887506    -2.440008
O      2.767213     4.795017    -0.528853
O      0.254326     5.059397    -0.302725
C     -1.095293     4.723815    -0.614345
H     -1.583335     4.348972     0.296224
H     -1.141241     3.955248    -1.398862
C     -1.820335     5.963530    -1.111955
H     -2.858358     5.689921    -1.350153
O     -1.911869     6.966557    -0.075909
C     -0.796667     7.859562    -0.264688
H     -1.041944     8.782562     0.270766
H      0.113863     7.411810     0.146490
C     -0.702302     8.023162    -1.778819
H      0.298660     8.326174    -2.104214
H     -1.421704     8.780391    -2.113554
C     -1.092293     6.628413    -2.301265
H     -0.214483     6.038159    -2.579318
H     -1.748081     6.693950    -3.176880
