32
Energy = -1142.563059782 Hartree (EUMP2 CORRECTED)
O      1.484864    -0.694600    -0.301855
C      1.903217     0.276216    -1.286634
H      2.229903    -0.284317    -2.167442
H      2.726372     0.884076    -0.891606
C      0.784555     0.092799     0.673242
H      0.158600    -0.586676     1.258271
H      1.492440     0.610670     1.335301
C      0.670492     1.146640    -1.505319
H     -0.002063     0.668215    -2.228094
H      0.927775     2.145831    -1.850835
C     -0.009586     1.156310    -0.114744
H     -1.053774     0.839767    -0.223458
O     -0.105006     2.362203     0.641726
P      0.970070     3.653024     0.616862
O      2.192573     3.255071    -0.188685
O      1.000485     4.208166     2.012518
O      0.084919     4.762179    -0.278175
C      0.154664     4.771020    -1.697618
H     -0.653874     4.155362    -2.119009
H      1.126545     4.383678    -2.036735
C     -0.001918     6.205564    -2.171534
H      0.086787     6.225235    -3.266941
O     -1.322396     6.715065    -1.878657
C     -1.220210     7.440676    -0.638711
H     -2.098632     8.091528    -0.582938
H     -1.208464     6.741228     0.203941
C      0.104438     8.186485    -0.759821
H      0.509323     8.487446     0.212424
H     -0.033062     9.083675    -1.375518
C      0.996839     7.160499    -1.478632
H      1.602589     6.602321    -0.759571
H      1.667464     7.634144    -2.204154
