32
Energy = -1142.568206748 Hartree (EUMP2 CORRECTED)
O      1.946085     0.701941    -0.891533
C      1.822952     1.920981    -1.661939
H      2.344463     1.750673    -2.609382
H      2.292467     2.756804    -1.128607
C      0.776947     0.593668    -0.043526
H      0.304141    -0.375318    -0.252011
H      1.076231     0.642795     1.008365
C      0.327166     2.144811    -1.792424
H     -0.097973     1.451653    -2.532068
H      0.052758     3.173455    -2.035610
C     -0.145461     1.762490    -0.387572
H     -1.207781     1.497501    -0.330460
O      0.137127     2.818145     0.537444
P     -1.045751     3.972850     0.812998
O     -0.493955     4.917379     1.854185
O     -2.381270     3.271942     0.891052
O     -0.981644     4.752821    -0.687409
C     -0.652650     6.133321    -0.694777
H     -1.077028     6.552794    -1.618404
H     -1.080618     6.653156     0.172361
C      0.851278     6.338089    -0.705918
H      1.288520     5.789909     0.133359
O      1.426743     5.766280    -1.919663
C      1.867801     6.838583    -2.752045
H      2.645944     6.441690    -3.411767
H      1.039139     7.220173    -3.373366
C      2.343321     7.905515    -1.775290
H      2.445146     8.899589    -2.227041
H      3.311228     7.610732    -1.353869
C      1.243496     7.826107    -0.713957
H      0.384753     8.442337    -1.016793
H      1.561525     8.165092     0.276836
