32
Energy = -1142.573014677 Hartree (EUMP2 CORRECTED)
O      0.731773    -0.672970    -0.609909
C     -0.588198    -0.400173    -0.102684
H     -0.548716    -0.213625     0.978906
H     -1.197104    -1.288462    -0.300477
C      1.334923     0.590511    -1.000500
H      2.198755     0.810186    -0.368192
H      1.653479     0.493295    -2.046133
C     -1.027622     0.850825    -0.847618
H     -1.845600     1.398909    -0.371948
H     -1.300902     0.596979    -1.880380
C      0.262289     1.666233    -0.820133
H      0.304399     2.432732    -1.602559
O      0.370984     2.249627     0.481669
P      1.050568     3.794232     0.501251
O     -0.035935     4.793253     0.154037
O      2.382506     3.745144    -0.207561
O      1.354166     3.841646     2.132164
C      0.286004     4.173526     3.025124
H      0.183451     3.351855     3.745887
H     -0.653220     4.301251     2.471705
C      0.609657     5.461105     3.763572
H     -0.253727     5.723973     4.391303
O      1.715360     5.303495     4.673826
C      2.931495     5.529458     3.924054
H      3.640729     5.982817     4.625853
H      3.323670     4.570450     3.571285
C      2.565296     6.443927     2.739617
H      2.847300     5.974253     1.794537
H      3.070789     7.414379     2.809164
C      1.034853     6.601726     2.836226
H      0.546199     6.534139     1.859204
H      0.774169     7.557665     3.306550
