32
Energy = -1142.569353190 Hartree (EUMP2 CORRECTED)
O      1.782389     0.289490     0.199222
C      2.160398     1.580861    -0.299491
H      3.046164     1.437664    -0.926910
H      2.399677     2.259773     0.530983
C      0.371585     0.366126     0.558365
H     -0.115274    -0.509633     0.113347
H      0.266310     0.358541     1.645080
C      0.922279     2.057383    -1.042989
H      0.815498     1.497358    -1.981330
H      0.895776     3.132099    -1.246133
C     -0.176952     1.664774    -0.059141
H     -1.142845     1.475934    -0.546799
O     -0.335916     2.776855     0.834731
P     -1.029023     2.619782     2.362341
O     -1.515101     4.000328     2.721119
O     -0.185604     1.739702     3.249878
O     -2.344606     1.659422     1.916361
C     -3.366880     2.312170     1.164724
H     -2.943697     2.805541     0.278749
H     -3.859651     3.080160     1.779411
C     -4.365511     1.255539     0.735314
H     -5.182499     1.741923     0.183815
O     -3.756814     0.328938    -0.198813
C     -3.432290    -0.862001     0.537654
H     -3.307170    -1.665179    -0.195510
H     -2.502713    -0.713985     1.100069
C     -4.618519    -1.043193     1.475975
H     -4.400981    -1.710932     2.317136
H     -5.471183    -1.447975     0.917256
C     -4.883794     0.403339     1.915481
H     -4.306241     0.639860     2.813777
H     -5.943241     0.594627     2.119117
