32
Energy = -1142.566139421 Hartree (EUMP2 CORRECTED)
O      1.417447    -0.185101    -1.470031
C      2.353091     0.908025    -1.394773
H      3.127296     0.714991    -2.143540
H      2.796046     0.954195    -0.392625
C      0.262812     0.264935    -0.732429
H     -0.595865    -0.282718    -1.134877
H      0.386468     0.063473     0.334786
C      1.489909     2.132329    -1.678518
H      1.899450     3.070434    -1.291601
H      1.329212     2.223286    -2.760136
C      0.158881     1.792879    -0.968883
H     -0.696837     2.033628    -1.608935
O     -0.072048     2.577305     0.203928
P      0.969368     2.620490     1.531367
O      1.840585     3.851629     1.376885
O      1.530553     1.249334     1.817329
O     -0.199943     2.916761     2.673679
C     -0.836558     4.197712     2.681729
H     -1.901375     4.049035     2.461048
H     -0.393642     4.857559     1.923898
C     -0.676256     4.832129     4.052699
H     -1.183834     5.807562     4.045334
O     -1.349223     4.052341     5.068349
C     -0.352865     3.201106     5.665817
H     -0.756915     2.875811     6.630125
H     -0.165630     2.335288     5.021845
C      0.880274     4.092203     5.773894
H      1.809653     3.516178     5.840012
H      0.798558     4.726069     6.665387
C      0.801718     4.936838     4.490007
H      1.453307     4.545165     3.703623
H      1.084503     5.979719     4.672768
