32
Energy = -1142.572685250 Hartree (EUMP2 CORRECTED)
O      1.022437    -0.213630     0.499457
C      1.606057     1.031147     0.937100
H      2.624508     0.805090     1.267912
H      1.028961     1.447528     1.773339
C      0.006463     0.100394    -0.485429
H      0.205834    -0.518589    -1.368896
H     -0.986897    -0.128096    -0.086925
C      1.517559     1.937241    -0.280288
H      2.279673     1.647435    -1.016650
H      1.597151     3.005021    -0.060808
C      0.117509     1.596982    -0.789814
H     -0.040815     1.810556    -1.852947
O     -0.842151     2.296959     0.007900
P     -1.696930     3.528431    -0.719700
O     -2.516107     4.213830     0.340175
O     -2.274710     3.031439    -2.033225
O     -0.341440     4.465664    -1.112046
C     -0.617885     5.693322    -1.791022
H     -0.289882     6.519741    -1.147110
H     -1.694165     5.811015    -1.983813
C      0.125895     5.755157    -3.113895
H     -0.088677     6.728280    -3.580555
O      1.559799     5.735965    -2.899270
C      2.014201     4.408769    -3.205511
H      3.091120     4.476668    -3.392269
H      1.823926     3.744474    -2.355597
C      1.185407     4.004443    -4.417573
H      1.167184     2.920541    -4.581343
H      1.592466     4.485112    -5.316082
C     -0.193242     4.573900    -4.054392
H     -0.810432     3.837090    -3.529400
H     -0.749468     4.909002    -4.937234
