32
Energy = -1142.569146932 Hartree (EUMP2 CORRECTED)
O      1.364057     0.591146     1.156694
C      2.078784     1.742903     0.664786
H      3.141840     1.482539     0.674941
H      1.908720     2.603031     1.325979
C      0.019325     0.657695     0.621410
H     -0.215662    -0.334479     0.218357
H     -0.689838     0.914199     1.415589
C      1.492969     1.986203    -0.715430
H      1.876514     1.233668    -1.417758
H      1.653303     2.981644    -1.135423
C      0.004659     1.749491    -0.456859
H     -0.531063     1.429016    -1.358529
O     -0.618121     2.907042     0.109555
P     -1.292269     3.997621    -1.003269
O     -2.768135     3.717392    -1.102297
O     -0.364260     4.061388    -2.203175
O     -1.053097     5.355631    -0.061731
C     -0.244617     6.429143    -0.540110
H     -0.895116     7.286612    -0.758872
H      0.282754     6.130094    -1.455613
C      0.753604     6.817194     0.536143
H      1.387296     7.629718     0.151894
O      0.080630     7.363045     1.696866
C      0.010037     6.309692     2.673643
H     -0.175434     6.787508     3.640929
H     -0.807709     5.622329     2.426706
C      1.363703     5.619863     2.559945
H      1.368425     4.612892     2.992313
H      2.127893     6.223709     3.065062
C      1.576834     5.612474     1.039737
H      1.171319     4.692599     0.613047
H      2.633196     5.696569     0.759898
