32
Energy = -1142.566529067 Hartree (EUMP2 CORRECTED)
O      1.317577     0.545812    -1.836586
C      2.335898     1.516333    -1.525758
H      3.034093     1.521771    -2.368618
H      2.847037     1.239584    -0.597035
C      0.245707     0.808283    -0.908341
H     -0.676770     0.483714    -1.401472
H      0.395425     0.244898     0.014567
C      1.542543     2.805746    -1.354234
H      2.044569     3.571766    -0.755725
H      1.297264     3.219882    -2.340724
C      0.260006     2.336029    -0.636361
H     -0.626528     2.813311    -1.069452
O      0.243470     2.756431     0.732771
P      0.890368     1.918016     2.035366
O      1.107921     2.969045     3.097767
O      1.933042     0.930905     1.572094
O     -0.448535     1.006495     2.469192
C     -1.588976     1.700289     2.980146
H     -2.419592     1.565753     2.274175
H     -1.375166     2.771468     3.093328
C     -1.965957     1.116642     4.330677
H     -2.858049     1.641709     4.701946
O     -2.356453    -0.270916     4.202450
C     -1.198993    -1.061024     4.532914
H     -1.563002    -2.065641     4.771998
H     -0.515526    -1.098369     3.677747
C     -0.573803    -0.324416     5.712436
H      0.485666    -0.568034     5.847942
H     -1.111790    -0.582106     6.633087
C     -0.796421     1.150898     5.339296
H      0.088232     1.589135     4.868364
H     -1.048076     1.760002     6.214883
