32
Energy = -1142.569289548 Hartree (EUMP2 CORRECTED)
O      1.472089    -0.155287     0.165606
C      1.979583     0.780559    -0.809773
H      2.656089     0.220582    -1.463065
H      2.532353     1.586269    -0.308748
C      0.172126     0.319989     0.593885
H     -0.533182    -0.513036     0.482675
H      0.216228     0.633532     1.641939
C      0.737814     1.326350    -1.493297
H      0.326686     0.575523    -2.181857
H      0.884634     2.274619    -2.015702
C     -0.196085     1.508738    -0.295529
H     -1.258066     1.529718    -0.563789
O      0.139732     2.705278     0.419853
P     -0.678264     4.104962     0.029013
O     -0.340153     5.125018     1.087694
O     -2.095601     3.774268    -0.391117
O      0.211185     4.436710    -1.373214
C     -0.142019     5.612192    -2.104928
H     -1.206395     5.853487    -1.981221
H      0.039667     5.390469    -3.163207
C      0.739540     6.790768    -1.712184
H      1.753073     6.409492    -1.517330
O      0.794409     7.689168    -2.864014
C      0.771905     9.055720    -2.410099
H      1.572393     9.601556    -2.924003
H     -0.192265     9.504877    -2.689230
C      0.936255     8.999866    -0.893292
H      0.482234     9.860411    -0.388436
H      1.998996     8.967004    -0.622443
C      0.263135     7.668756    -0.564993
H     -0.829377     7.768445    -0.609754
H      0.510262     7.235919     0.406479
