32
Energy = -1142.567953513 Hartree (EUMP2 CORRECTED)
O      1.546092    -0.027747     0.228723
C      2.005572     1.045344    -0.622055
H      2.901859     0.682226    -1.135329
H      2.260051     1.922428    -0.012166
C      0.103890     0.075463     0.339169
H     -0.324476    -0.875621    -0.004207
H     -0.172312     0.255080     1.382456
C      0.825217     1.338821    -1.531412
H      0.729253     0.548577    -2.288828
H      0.842920     2.307441    -2.032238
C     -0.333109     1.246386    -0.540125
H     -1.294929     1.072927    -1.035637
O     -0.406490     2.393037     0.307404
P     -1.156793     3.796675    -0.269883
O     -2.132277     4.250229     0.780021
O     -1.475602     3.568914    -1.733422
O      0.138737     4.854468    -0.153565
C      1.037810     5.025956    -1.240168
H      0.495236     5.036447    -2.192562
H      1.781592     4.210087    -1.259013
C      1.774032     6.338729    -1.031664
H      2.550302     6.428891    -1.804347
O      0.901557     7.470017    -1.223350
C      0.390457     7.824252     0.076077
H      0.010282     8.847261    -0.006092
H     -0.415119     7.140703     0.361980
C      1.600234     7.682521     0.996304
H      1.314098     7.526237     2.041988
H      2.218703     8.585974     0.935429
C      2.344664     6.473167     0.400522
H      2.133165     5.565379     0.971923
H      3.429125     6.630453     0.385327
