32
Energy = -1142.565253890 Hartree (EUMP2 CORRECTED)
O      1.494297     0.362015     0.886755
C      1.948786     1.532606     0.174852
H      2.960655     1.314131    -0.180149
H      1.970857     2.400473     0.847101
C      0.048276     0.343747     0.814485
H     -0.247522    -0.652952     0.463490
H     -0.379808     0.532640     1.804135
C      0.916888     1.729636    -0.922221
H      1.060055     0.987100    -1.718889
H      0.915967     2.726957    -1.363562
C     -0.377773     1.449902    -0.158653
H     -1.199742     1.126269    -0.808169
O     -0.767290     2.575141     0.622376
P     -1.720423     3.809168    -0.020560
O     -1.019303     5.119153     0.248061
O     -3.157416     3.517191     0.334502
O     -1.554202     3.439234    -1.664175
C     -0.982666     4.428505    -2.514695
H      0.099372     4.516815    -2.347911
H     -1.429636     5.414391    -2.324116
C     -1.250723     4.007057    -3.946299
H     -0.846157     4.774289    -4.621575
O     -0.534776     2.787389    -4.264808
C     -1.483465     1.711028    -4.207469
H     -1.056345     0.879570    -4.777472
H     -1.646444     1.409083    -3.165736
C     -2.750114     2.304523    -4.811449
H     -3.652592     1.738515    -4.554815
H     -2.655001     2.337335    -5.903695
C     -2.744402     3.718466    -4.213604
H     -3.291521     3.734506    -3.266243
H     -3.186262     4.460706    -4.887523
