32
Energy = -1142.561968382 Hartree (EUMP2 CORRECTED)
O      0.973749    -0.016983    -0.353715
C      1.089727     0.473855     0.995548
H      1.733963    -0.226987     1.537167
H      0.101292     0.510758     1.472561
C      0.759242     1.124625    -1.230219
H      1.534482     1.087232    -2.006448
H     -0.230129     1.066348    -1.691137
C      1.663269     1.873706     0.839114
H      2.732859     1.818863     0.596456
H      1.513616     2.524428     1.705393
C      0.875883     2.381242    -0.364927
H      1.354457     3.218746    -0.879030
O     -0.414460     2.772326     0.126251
P     -1.261172     3.901732    -0.753463
O     -2.555364     4.151021    -0.027853
O     -1.182330     3.562189    -2.234987
O     -0.200050     5.196547    -0.505680
C     -0.144096     6.154853    -1.552502
H     -1.128775     6.266882    -2.027257
H      0.093288     7.105166    -1.056985
C      0.919974     5.900499    -2.658990
H      1.620009     6.752381    -2.654918
O      1.731925     4.731850    -2.436456
C      1.615970     3.856180    -3.578035
H      2.572434     3.330123    -3.672836
H      0.796561     3.149485    -3.404141
C      1.288840     4.781203    -4.741880
H      0.845577     4.249553    -5.591844
H      2.191219     5.304863    -5.084434
C      0.313055     5.739999    -4.059717
H     -0.667131     5.260467    -3.968922
H      0.204735     6.702807    -4.573614
