32
Energy = -1142.570344414 Hartree (EUMP2 CORRECTED)
O      2.486732     1.243625     0.574590
C      2.239079     2.504582    -0.082654
H      3.166834     2.783193    -0.591701
H      1.975411     3.273496     0.654991
C      1.213527     0.570319     0.713263
H      1.341882    -0.450557     0.332635
H      0.915281     0.540927     1.766563
C      1.064084     2.227151    -1.004834
H      1.395765     1.650823    -1.879464
H      0.536440     3.131071    -1.321552
C      0.182473     1.364030    -0.095205
H     -0.505392     0.711762    -0.645585
O     -0.547634     2.172023     0.825710
P     -1.910554     3.022490     0.317219
O     -1.457418     4.308049    -0.349431
O     -2.910878     2.954243     1.436973
O     -2.446853     1.996522    -0.906054
C     -2.267326     2.326195    -2.281307
H     -1.724833     1.500521    -2.764087
H     -1.695714     3.258099    -2.381899
C     -3.626484     2.488794    -2.941488
H     -3.473298     2.705947    -4.008720
O     -4.372121     1.250967    -2.896442
C     -5.251582     1.337430    -1.757119
H     -6.034862     0.587824    -1.909725
H     -4.695051     1.127437    -0.837776
C     -5.749863     2.777759    -1.783229
H     -6.112533     3.113573    -0.806128
H     -6.562178     2.874451    -2.514074
C     -4.503280     3.552219    -2.242739
H     -3.970436     3.984957    -1.392180
H     -4.756759     4.368298    -2.928685
