32
Energy = -1142.567937618 Hartree (EUMP2 CORRECTED)
O      1.064905    -0.493872    -1.229370
C      1.753920     0.534300    -1.991074
H      1.299722     0.564428    -2.990235
H      2.805668     0.243560    -2.096424
C      0.452140     0.135300    -0.088197
H     -0.476799    -0.400816     0.127746
H      1.112410     0.098178     0.789290
C      1.568146     1.846820    -1.234784
H      1.522086     2.723222    -1.885147
H      2.364574     2.007519    -0.500234
C      0.255120     1.592195    -0.486563
H     -0.592542     1.690911    -1.182392
O     -0.021310     2.362523     0.675788
P      0.757288     3.843879     0.907923
O      0.553281     4.661973    -0.354442
O      2.107180     3.634616     1.544190
O     -0.264172     4.379600     2.101710
C     -1.589225     4.771395     1.729344
H     -2.295889     4.152086     2.296820
H     -1.750504     4.619506     0.654136
C     -1.810413     6.236580     2.063855
H     -2.810124     6.523046     1.707330
O     -1.825088     6.474642     3.484937
C     -0.456200     6.675531     3.906033
H     -0.495895     7.388430     4.737465
H     -0.040635     5.724920     4.254827
C      0.317408     7.199101     2.681012
H      1.169342     6.551090     2.463218
H      0.689436     8.217399     2.844685
C     -0.708149     7.154571     1.531209
H     -0.273790     6.770954     0.602675
H     -1.131049     8.150705     1.352558
