32
Energy = -1142.572821551 Hartree (EUMP2 CORRECTED)
O      1.022348    -0.109746    -0.476610
C      1.746391     0.939544     0.206351
H      2.810358     0.699443     0.115628
H      1.461775     0.961365     1.266166
C     -0.211390     0.457963    -0.977775
H     -0.256387     0.254561    -2.055752
H     -1.065371    -0.008526    -0.475272
C      1.319946     2.217805    -0.493460
H      1.814866     2.297144    -1.471165
H      1.473850     3.137284     0.077154
C     -0.174230     1.956943    -0.680904
H     -0.625835     2.555028    -1.480812
O     -0.878434     2.165043     0.552197
P     -1.414185     3.718661     0.877823
O     -0.265750     4.691044     0.725386
O     -2.292773     3.634761     2.102689
O     -2.396195     3.831659    -0.489555
C     -3.566112     4.643473    -0.434944
H     -3.485727     5.413056    -1.214015
H     -3.668143     5.128626     0.545725
C     -4.791072     3.781544    -0.695308
H     -5.680157     4.429336    -0.710516
O     -4.718759     3.186617    -2.015067
C     -4.269312     1.831980    -1.840985
H     -4.543011     1.289105    -2.751755
H     -3.182076     1.813122    -1.701945
C     -4.991280     1.361332    -0.584947
H     -4.513648     0.491489    -0.120329
H     -6.027496     1.100611    -0.834352
C     -4.930847     2.612486     0.303922
H     -4.066221     2.588969     0.973773
H     -5.829554     2.724329     0.921083
