32
Energy = -1142.572836348 Hartree (EUMP2 CORRECTED)
O      0.719095    -0.328389     1.004098
C      1.639433     0.364085     0.134850
H      2.436387    -0.344552    -0.112130
H      2.066219     1.233478     0.652378
C     -0.598333     0.248587     0.809935
H     -1.281911    -0.573493     0.561736
H     -0.926336     0.743206     1.729220
C      0.787815     0.804488    -1.044951
H      0.575151    -0.052488    -1.698034
H      1.214566     1.620922    -1.634302
C     -0.481567     1.263200    -0.327345
H     -1.359849     1.287820    -0.979758
O     -0.253126     2.556251     0.233598
P     -1.121302     3.873190    -0.359491
O     -1.750763     4.564184     0.829137
O     -1.869206     3.445006    -1.599548
O      0.163870     4.805480    -0.883549
C      0.899803     5.568421     0.076251
H      1.952807     5.261211     0.019606
H      0.515810     5.389152     1.088780
C      0.785893     7.048718    -0.245148
H      1.309624     7.613847     0.539037
O      1.450987     7.390682    -1.477339
C      0.510339     7.177511    -2.554890
H      0.739897     7.935473    -3.312652
H      0.661028     6.178306    -2.975528
C     -0.901364     7.314446    -1.953837
H     -1.481273     6.406603    -2.134380
H     -1.442532     8.164192    -2.386728
C     -0.657677     7.514610    -0.445179
H     -1.357102     6.939446     0.169448
H     -0.728863     8.576529    -0.180013
