32
Energy = -1142.572574304 Hartree (EUMP2 CORRECTED)
O     -0.557899    -0.116189    -0.075576
C      0.697309     0.476335     0.339135
H      1.468017    -0.296602     0.245033
H      0.617722     0.795478     1.385726
C     -1.319417     0.884635    -0.791001
H     -1.411278     0.568180    -1.840679
H     -2.313786     0.963927    -0.344471
C      0.894051     1.673973    -0.577022
H      1.259744     1.352041    -1.562305
H      1.558446     2.445373    -0.179944
C     -0.539952     2.188674    -0.689790
H     -0.690905     2.845136    -1.554148
O     -0.912760     2.852004     0.522834
P     -0.515813     4.492022     0.652017
O      0.325026     4.851671    -0.547300
O     -0.111606     4.716097     2.090293
O     -2.032194     5.153560     0.416331
C     -2.780355     5.693354     1.509092
H     -3.306871     6.567948     1.104633
H     -2.102267     6.012506     2.312324
C     -3.815079     4.733236     2.076575
H     -4.413378     5.293140     2.811506
O     -4.747873     4.313703     1.056240
C     -4.298200     3.026308     0.597015
H     -5.153147     2.557418     0.096792
H     -3.467835     3.155103    -0.107223
C     -3.847325     2.306255     1.864256
H     -3.121250     1.512580     1.663821
H     -4.718103     1.872485     2.372576
C     -3.227469     3.443841     2.689770
H     -2.137584     3.442590     2.616193
H     -3.492673     3.367527     3.751158
