32
Energy = -1142.573265005 Hartree (EUMP2 CORRECTED)
O      0.766640    -0.231076     0.063658
C      1.709758     0.813317    -0.270045
H      2.549188     0.328350    -0.777811
H      2.064345     1.304325     0.645265
C     -0.553592     0.361391     0.095860
H     -1.196616    -0.227864    -0.571179
H     -0.949006     0.327627     1.116917
C      0.915862     1.780964    -1.129724
H      0.772110     1.363313    -2.135609
H      1.329258     2.788983    -1.207842
C     -0.411616     1.810533    -0.374417
H     -1.251306     2.134263    -1.001699
O     -0.304350     2.637477     0.788710
P     -0.706595     4.268881     0.585580
O     -0.296534     4.707959    -0.798186
O     -0.324419     4.932409     1.881673
O     -2.380779     4.098475     0.516340
C     -3.016639     3.525761     1.658566
H     -2.982225     4.228250     2.500638
H     -2.506658     2.595859     1.956260
C     -4.456128     3.214075     1.292221
H     -4.934912     2.723039     2.150774
O     -5.215980     4.421493     1.061503
C     -5.217225     4.646010    -0.358822
H     -6.034620     5.343567    -0.566867
H     -4.259592     5.077254    -0.670634
C     -5.419298     3.252490    -0.945566
H     -5.099493     3.180899    -1.991172
H     -6.479369     2.978352    -0.885194
C     -4.574171     2.377973    -0.004273
H     -3.578974     2.211370    -0.424563
H     -5.039592     1.404119     0.184669
