32
Energy = -1142.569282277 Hartree (EUMP2 CORRECTED)
O      1.528159    -0.078392    -0.372714
C      1.600784     0.843813    -1.483787
H      2.056001     0.299647    -2.317456
H      2.227721     1.704801    -1.218437
C      0.376996     0.280366     0.429792
H     -0.267982    -0.605348     0.501744
H      0.704232     0.584479     1.429153
C      0.164388     1.278237    -1.716893
H     -0.399797     0.476978    -2.213562
H      0.065317     2.208740    -2.280434
C     -0.325109     1.437003    -0.277052
H     -1.416262     1.405999    -0.186715
O      0.171454     2.647293     0.309301
P     -0.612507     4.077574    -0.059545
O     -0.202049     5.098718     0.975025
O     -2.044554     3.766044    -0.429798
O      0.260489     4.408782    -1.469941
C      0.435120     5.786365    -1.802223
H     -0.234609     6.419822    -1.211296
H      0.170761     5.904706    -2.860285
C      1.886099     6.270610    -1.575056
H      2.435868     6.226383    -2.522931
O      1.876343     7.668904    -1.210483
C      1.725084     7.676836     0.226317
H      2.008887     8.679010     0.561968
H      0.684856     7.470015     0.503064
C      2.632327     6.554243     0.727864
H      2.225697     6.094602     1.632464
H      3.638599     6.938511     0.934054
C      2.652817     5.554411    -0.449512
H      2.180638     4.606647    -0.189526
H      3.679889     5.351992    -0.774691
