32
Energy = -1142.570958035 Hartree (EUMP2 CORRECTED)
O      1.063288    -0.278609     1.080262
C      1.957175     0.512796     0.273879
H      2.847270    -0.098180     0.091372
H      2.241429     1.428377     0.809543
C     -0.296398     0.136765     0.782749
H     -0.856094    -0.761275     0.490987
H     -0.749616     0.587532     1.670714
C      1.147601     0.847156    -0.969135
H      1.080152    -0.033194    -1.622033
H      1.524042     1.701684    -1.538356
C     -0.213797     1.161023    -0.352915
H     -1.048105     1.086864    -1.058462
O     -0.146661     2.482034     0.182754
P     -1.525762     3.455352     0.100451
O     -2.016940     3.675796     1.515412
O     -2.394860     2.968324    -1.033185
O     -0.776584     4.850503    -0.420451
C      0.058234     5.556360     0.501329
H      1.087343     5.530319     0.119514
H      0.023119     5.089588     1.494799
C     -0.413659     6.996164     0.610279
H      0.245255     7.525828     1.313322
O     -0.270203     7.688302    -0.652082
C     -1.548862     7.617895    -1.310925
H     -1.552344     8.404953    -2.072246
H     -1.674189     6.636131    -1.779795
C     -2.558326     7.831506    -0.187479
H     -3.548101     7.430474    -0.431377
H     -2.657898     8.904339     0.018211
C     -1.904639     7.102826     0.999933
H     -2.324357     6.103549     1.146641
H     -2.027693     7.660439     1.935238
