32
Energy = -1142.572910109 Hartree (EUMP2 CORRECTED)
O      1.805996     0.284785    -0.263681
C      1.847526     1.255802    -1.334847
H      2.495681     0.841132    -2.113696
H      2.267661     2.201319    -0.968995
C      0.507079     0.374370     0.371789
H      0.033115    -0.614308     0.306209
H      0.631082     0.658896     1.421376
C      0.397609     1.440020    -1.746366
H      0.054916     0.578199    -2.335485
H      0.204755     2.364637    -2.294733
C     -0.291299     1.434639    -0.380972
H     -1.362418     1.213016    -0.443067
O     -0.093053     2.671380     0.313147
P     -1.000005     3.997553    -0.165303
O     -0.950659     4.998449     0.965033
O     -2.265449     3.492671    -0.818533
O      0.049331     4.533416    -1.378554
C      0.361125     5.923903    -1.470308
H     -0.196239     6.502053    -0.724722
H      0.099177     6.278047    -2.475449
C      1.853903     6.089414    -1.221353
H      2.420044     5.612518    -2.031545
O      2.193884     7.504534    -1.270119
C      2.401998     7.935227     0.084109
H      3.001652     8.849899     0.039057
H      1.439728     8.157386     0.570297
C      3.083154     6.749567     0.750027
H      3.042440     6.788523     1.844563
H      4.134783     6.711111     0.439541
C      2.282389     5.578424     0.167592
H      1.394350     5.368281     0.773309
H      2.865096     4.654506     0.102190
