32
Energy = -1142.571777890 Hartree (EUMP2 CORRECTED)
O      0.349089    -0.520641     0.372677
C      1.299934     0.120452    -0.509301
H      1.903489    -0.675853    -0.956161
H      1.947127     0.794452     0.066367
C     -0.847011     0.294336     0.407197
H     -1.691346    -0.338577     0.103078
H     -1.010473     0.668573     1.422762
C      0.447796     0.901277    -1.494016
H     -0.002214     0.220517    -2.229913
H      0.958778     1.717001    -2.010613
C     -0.629294     1.455008    -0.562167
H     -1.551423     1.737027    -1.086463
O     -0.119334     2.554731     0.194191
P     -0.231775     4.088331    -0.515369
O     -1.465275     4.761958     0.049245
O      0.060597     3.979586    -1.991575
O      1.120241     4.728393     0.213833
C      1.146210     4.778758     1.644045
H      1.929844     4.095888     1.996101
H      0.180521     4.468752     2.065523
C      1.452221     6.197211     2.092154
H      1.481518     6.216165     3.191197
O      2.772188     6.604695     1.661559
C      2.599497     7.350177     0.442127
H      3.512718     7.937897     0.302125
H      2.458832     6.663043    -0.399289
C      1.349632     8.187035     0.693613
H      0.869527     8.516605    -0.234331
H      1.614263     9.073532     1.283031
C      0.462477     7.229376     1.507547
H     -0.274714     6.723939     0.876422
H     -0.077231     7.753246     2.304584
