32
Energy = -1142.573587911 Hartree (EUMP2 CORRECTED)
O      0.988179     0.417114     1.238459
C      1.838997     1.162705     0.336374
H      2.725094     0.546237     0.154576
H      2.138294     2.110009     0.802356
C     -0.386519     0.757039     0.939863
H     -0.915228    -0.172141     0.687730
H     -0.850400     1.219766     1.817316
C      0.980214     1.417579    -0.889807
H      0.900037     0.504875    -1.496129
H      1.323993     2.252969    -1.505899
C     -0.366191     1.732771    -0.233225
H     -1.224191     1.607148    -0.906110
O     -0.372788     3.054270     0.311073
P     -0.599824     4.317892    -0.807994
O     -1.859275     4.032175    -1.585683
O      0.739948     4.618581    -1.447418
O     -0.947238     5.464357     0.341691
C      0.139001     5.982045     1.116521
H      0.445030     6.950985     0.702596
H      1.001406     5.302581     1.086841
C     -0.331068     6.151534     2.549986
H      0.506568     6.538626     3.147822
O     -1.369923     7.155560     2.640019
C     -2.625461     6.453852     2.675920
H     -3.365935     7.153921     3.076164
H     -2.907990     6.139857     1.664617
C     -2.345609     5.253934     3.573166
H     -3.072524     4.444694     3.440534
H     -2.362057     5.570123     4.623535
C     -0.927460     4.852620     3.138222
H     -0.957925     4.080534     2.364695
H     -0.326366     4.480167     3.975468
