32
Energy = -1142.572284671 Hartree (EUMP2 CORRECTED)
O      1.852254     0.504831     0.998376
C      2.112350     1.636327     0.138417
H      3.140837     1.531443    -0.220703
H      2.009011     2.572871     0.700407
C      0.434025     0.226904     0.942431
H      0.314866    -0.831269     0.675240
H     -0.022976     0.417495     1.918989
C      1.049915     1.546942    -0.943353
H      1.295660     0.748195    -1.656729
H      0.894569     2.491731    -1.470176
C     -0.175183     1.152407    -0.112371
H     -0.958285     0.664234    -0.703599
O     -0.722273     2.273756     0.582885
P     -1.482533     3.510896    -0.262277
O     -0.438893     4.461139    -0.816530
O     -2.654497     3.948081     0.575018
O     -2.064221     2.599186    -1.556458
C     -1.680915     2.904523    -2.896962
H     -1.349955     1.969620    -3.371624
H     -0.857749     3.631094    -2.896879
C     -2.856956     3.465329    -3.677842
H     -2.498184     3.747183    -4.678216
O     -3.883666     2.479911    -3.900082
C     -4.758896     2.498718    -2.747970
H     -5.755372     2.235732    -3.120522
H     -4.425435     1.744822    -2.027585
C     -4.675703     3.911695    -2.143335
H     -4.393423     3.869247    -1.088507
H     -5.631148     4.441963    -2.233124
C     -3.573344     4.613182    -2.961746
H     -2.894308     5.193181    -2.328504
H     -4.009760     5.284241    -3.711401
