32
Energy = -1142.554925196 Hartree (EUMP2 CORRECTED)
O      0.810679    -0.592192     0.067749
C      1.846067     0.405619     0.009842
H      2.780598    -0.118705    -0.212185
H      1.932414     0.925960     0.973792
C     -0.445832     0.088257    -0.175803
H     -1.009927    -0.527479    -0.885393
H     -1.007772     0.192774     0.758231
C      1.373376     1.363266    -1.072445
H      1.515604     0.908332    -2.062471
H      1.853758     2.344905    -1.039765
C     -0.115327     1.482940    -0.729255
H     -0.756927     1.738642    -1.580020
O     -0.273933     2.441713     0.313326
P     -1.057403     3.896413    -0.033820
O     -1.155726     4.620657     1.275336
O     -2.203016     3.584868    -0.977273
O      0.131561     4.685774    -0.938822
C      0.151057     4.509750    -2.346732
H      0.679029     3.576587    -2.600509
H     -0.873311     4.423602    -2.729196
C      0.874415     5.706432    -3.025750
H      0.163924     6.284316    -3.626046
O      1.441966     6.646188    -2.110235
C      2.657147     6.057948    -1.609759
H      3.361783     6.882212    -1.456244
H      2.447286     5.566325    -0.654634
C      3.125354     5.053448    -2.688231
H      3.088714     4.030108    -2.301100
H      4.150797     5.244984    -3.022856
C      2.097331     5.241468    -3.817642
H      1.922571     4.327585    -4.397558
H      2.412802     6.036162    -4.503943
