32
Energy = -1142.571882766 Hartree (EUMP2 CORRECTED)
O      0.764375    -0.312812     0.355971
C      1.821444     0.560077    -0.091638
H      2.626820    -0.082019    -0.461429
H      2.189353     1.171260     0.743459
C     -0.474927     0.432934     0.275932
H     -1.200062    -0.200073    -0.249546
H     -0.840750     0.663214     1.281949
C      1.164722     1.434837    -1.146235
H      1.016196     0.861238    -2.071364
H      1.701574     2.361872    -1.361593
C     -0.181111     1.733407    -0.479525
H     -0.979806     1.993586    -1.184083
O     -0.029189     2.779256     0.485360
P     -0.432664     4.334155     0.005922
O     -0.233293     5.210359     1.209543
O     -1.703888     4.275422    -0.821274
O      0.845973     4.614900    -1.065548
C      0.589492     4.899277    -2.440078
H     -0.413890     4.562827    -2.727370
H      1.339139     4.365411    -3.039232
C      0.703843     6.397132    -2.680481
H      1.739938     6.719316    -2.506410
O      0.410583     6.675203    -4.081230
C     -0.759142     7.508615    -4.138369
H     -0.684320     8.106377    -5.052941
H     -1.666327     6.887160    -4.188928
C     -0.725475     8.308325    -2.844567
H     -1.694101     8.753401    -2.589729
H      0.018523     9.111330    -2.923223
C     -0.280062     7.231316    -1.852406
H     -1.132385     6.613026    -1.549869
H      0.180595     7.623172    -0.941878
