32
Energy = -1142.569221647 Hartree (EUMP2 CORRECTED)
O      2.076612     0.833626     1.139558
C      2.270436     2.049431     0.391188
H      3.325863     2.081312     0.102198
H      2.029631     2.921574     1.013219
C      0.696733     0.417685     0.965107
H      0.711403    -0.622716     0.616462
H      0.159396     0.485635     1.915410
C      1.295663     1.936166    -0.770948
H      1.677878     1.224877    -1.515524
H      1.063332     2.889402    -1.254086
C      0.067786     1.365158    -0.061379
H     -0.625519     0.848541    -0.732643
O     -0.586558     2.436085     0.617246
P     -2.242174     2.696069     0.422713
O     -2.429317     4.194349     0.435842
O     -3.002062     1.717983     1.282200
O     -2.449573     2.120909    -1.146478
C     -2.076815     2.960872    -2.240897
H     -1.295517     2.447734    -2.819966
H     -1.695024     3.925922    -1.879670
C     -3.287664     3.196348    -3.128176
H     -2.979714     3.812947    -3.985151
O     -3.758063     1.950231    -3.691973
C     -4.843246     1.499713    -2.857401
H     -5.411685     0.774278    -3.448481
H     -4.447123     1.027304    -1.952108
C     -5.608796     2.775851    -2.526869
H     -6.222833     2.676249    -1.625340
H     -6.261173     3.042384    -3.367514
C     -4.479935     3.806723    -2.358598
H     -4.214303     3.948203    -1.307399
H     -4.755117     4.784936    -2.768713
