32
Energy = -1142.567606352 Hartree (EUMP2 CORRECTED)
O      0.856518    -0.265982     0.389910
C      1.472149     0.617252    -0.565136
H      2.227236     0.030299    -1.097689
H      1.962265     1.452882    -0.045198
C     -0.434344     0.305156     0.715706
H     -1.147124    -0.525986     0.750270
H     -0.392936     0.801277     1.692153
C      0.313218     1.100862    -1.421566
H      0.001722     0.299064    -2.103870
H      0.501978     2.008712    -2.000586
C     -0.772472     1.339802    -0.367883
H     -1.777544     1.214385    -0.782114
O     -0.665771     2.637259     0.231392
P     -1.302048     3.940098    -0.647043
O     -1.722051     4.951058     0.388006
O     -2.165740     3.401537    -1.760611
O      0.106968     4.501279    -1.389268
C      1.281217     4.619502    -0.588078
H      1.563064     3.658283    -0.142356
H      1.121352     5.343436     0.222366
C      2.370705     5.114633    -1.517376
H      2.003081     5.994247    -2.063669
O      3.511503     5.526796    -0.707439
C      4.719410     4.965854    -1.247142
H      5.499679     5.733300    -1.195380
H      5.030444     4.106900    -0.633560
C      4.371607     4.525121    -2.664251
H      5.038908     3.742159    -3.042341
H      4.415932     5.378839    -3.351566
C      2.927003     4.065069    -2.475640
H      2.901690     3.077672    -1.997356
H      2.348220     4.009126    -3.402315
