32
Energy = -1142.546876629 Hartree (EUMP2 CORRECTED)
O      2.120094     0.607881     0.726914
C      2.350987     1.737293    -0.132625
H      3.348000     1.611934    -0.564271
H      2.309270     2.673480     0.441737
C      0.693359     0.564588     0.947175
H      0.409525    -0.492376     0.983561
H      0.434492     1.056207     1.891878
C      1.205276     1.670755    -1.130341
H      1.387810     0.858981    -1.847518
H      1.033185     2.610559    -1.662439
C      0.021014     1.339438    -0.208460
H     -0.746867     0.724312    -0.687904
O     -0.529546     2.523400     0.329100
P     -1.874018     3.454911    -0.096651
O     -1.302443     4.761610    -0.605547
O     -2.884045     3.344349     1.012319
O     -2.586414     2.701870    -1.427917
C     -2.019238     1.922451    -2.463114
H     -2.264178     0.860684    -2.314318
H     -0.929455     2.039794    -2.521907
C     -2.599240     2.398552    -3.786960
H     -2.086665     1.872665    -4.605320
O     -3.990618     2.067231    -3.926834
C     -4.753245     3.119743    -3.289519
H     -5.698758     3.182253    -3.839421
H     -4.946816     2.847470    -2.247872
C     -3.900718     4.398602    -3.376521
H     -3.772195     4.846505    -2.388890
H     -4.358166     5.140289    -4.041748
C     -2.539038     3.923831    -3.922155
H     -1.712666     4.355205    -3.347838
H     -2.424514     4.190834    -4.979613
