32
Energy = -1142.568560372 Hartree (EUMP2 CORRECTED)
O      1.663705     0.180849     0.055983
C      2.058381     1.479629    -0.409304
H      2.898351     1.334747    -1.096506
H      2.374089     2.111768     0.432604
C      0.275399     0.283377     0.492271
H     -0.265786    -0.546581     0.021425
H      0.219323     0.213170     1.579607
C      0.797055     2.033668    -1.052577
H      0.613675     1.523880    -2.007546
H      0.798333     3.117139    -1.203825
C     -0.256079     1.631976    -0.022669
H     -1.256862     1.509117    -0.460693
O     -0.326621     2.709068     0.923840
P     -0.931093     2.564002     2.488354
O     -0.976462     3.978953     3.004132
O     -0.327905     1.391952     3.220185
O     -2.492156     2.069490     2.083138
C     -3.293668     3.007916     1.369876
H     -2.712298     3.487519     0.571652
H     -3.660098     3.791857     2.050834
C     -4.456749     2.243192     0.766806
H     -5.121188     2.950491     0.250683
O     -3.985568     1.329382    -0.255156
C     -3.935707     0.020574     0.336936
H     -3.924451    -0.700382    -0.486751
H     -3.028345    -0.082064     0.944371
C     -5.188458    -0.033260     1.202449
H     -5.148104    -0.819199     1.964926
H     -6.066118    -0.204980     0.567461
C     -5.211956     1.379808     1.802957
H     -4.671653     1.398478     2.753676
H     -6.230416     1.747445     1.971141
