32
Energy = -1142.571757999 Hartree (EUMP2 CORRECTED)
O      1.585105     0.325256     0.232371
C      1.904803     1.526165    -0.500199
H      2.804366     1.310807    -1.085736
H      2.106484     2.352050     0.195140
C      0.151737     0.312563     0.461296
H     -0.228786    -0.648997     0.094053
H     -0.055528     0.412490     1.531182
C      0.659032     1.811948    -1.324078
H      0.605734     1.119556    -2.175406
H      0.581180     2.845619    -1.674672
C     -0.437004     1.498468    -0.305268
H     -1.411120     1.268367    -0.749112
O     -0.555831     2.619831     0.570352
P     -2.073823     3.297442     0.851520
O     -2.088162     3.716623     2.300087
O     -3.125413     2.462837     0.161550
O     -1.887697     4.675595    -0.093087
C     -0.854437     5.580619     0.285577
H      0.045597     5.034563     0.594052
H     -1.188608     6.212052     1.123904
C     -0.533845     6.435293    -0.926575
H      0.218005     7.186021    -0.645178
O      0.082615     5.633731    -1.964219
C     -0.945585     5.313270    -2.916144
H     -0.439691     5.018501    -3.841244
H     -1.561828     4.488496    -2.539413
C     -1.751499     6.602194    -3.025307
H     -2.750371     6.447060    -3.448377
H     -1.211742     7.320072    -3.654783
C     -1.789809     7.073675    -1.563744
H     -2.684852     6.693407    -1.063436
H     -1.777064     8.165936    -1.476305
