32
Energy = -1142.551057098 Hartree (EUMP2 CORRECTED)
O      1.350291     0.075296     1.227780
C      2.259880     1.057343     0.702445
H      3.260038     0.613436     0.726890
H      2.242067     1.966205     1.318891
C      0.039790     0.353270     0.670742
H     -0.348100    -0.591915     0.272037
H     -0.632407     0.735240     1.444514
C      1.729076     1.350724    -0.693283
H      1.964526     0.515699    -1.367022
H      2.102407     2.287246    -1.116641
C      0.226793     1.420276    -0.420981
H     -0.400650     1.186473    -1.284269
O     -0.072010     2.704379     0.116848
P     -1.397107     3.615328    -0.402756
O     -1.060204     5.041809    -0.056249
O     -2.649675     2.890042     0.029046
O     -1.370698     3.505881    -2.087623
C     -0.535131     2.863426    -3.020766
H     -0.946392     1.881819    -3.301555
H      0.487420     2.730421    -2.637785
C     -0.452431     3.747470    -4.257503
H      0.240465     3.285218    -4.975995
O     -1.727366     3.816605    -4.930282
C     -2.362181     5.036161    -4.498416
H     -3.137116     5.264178    -5.237025
H     -2.808890     4.893740    -3.508747
C     -1.220613     6.045018    -4.454397
H     -1.444787     6.910680    -3.822132
H     -1.000838     6.396504    -5.470035
C     -0.062030     5.199799    -3.901004
H      0.000465     5.311953    -2.814102
H      0.901506     5.477847    -4.343006
