32
Energy = -1142.557301868 Hartree (EUMP2 CORRECTED)
O     -0.286433    -0.834754     0.961310
C     -0.941162    -0.715308    -0.326725
H     -2.029095    -0.795171    -0.178451
H     -0.612065    -1.558270    -0.942995
C      0.137326     0.480046     1.393588
H     -0.195970     0.635888     2.424374
H      1.231002     0.552472     1.354094
C     -0.547149     0.645182    -0.886029
H     -1.280892     1.042815    -1.595916
H      0.429830     0.621525    -1.367690
C     -0.498006     1.461592     0.407503
H     -1.540151     1.628085     0.721671
O      0.068354     2.754611     0.447955
P      1.540287     3.315301    -0.147102
O      2.531204     3.345923     0.997430
O      1.227553     4.500952    -1.021395
O      1.985833     2.059447    -1.171148
C      3.128264     1.253721    -0.884585
H      2.824194     0.199773    -0.963782
H      3.496215     1.457783     0.129416
C      4.217601     1.536467    -1.905818
H      5.060962     0.856857    -1.714271
O      3.754454     1.223498    -3.240074
C      3.330840     2.467097    -3.834999
H      3.308044     2.303275    -4.917383
H      2.335820     2.739664    -3.467573
C      4.378895     3.472333    -3.374439
H      4.019854     4.505482    -3.424609
H      5.279660     3.377659    -3.993611
C      4.652038     3.019113    -1.931489
H      4.063485     3.603806    -1.220416
H      5.707678     3.126072    -1.657471
