32
Energy = -1142.572499879 Hartree (EUMP2 CORRECTED)
O      0.356367    -0.568013     0.030737
C      1.321370     0.153002    -0.770350
H      1.899422    -0.596949    -1.319343
H      1.990103     0.730694    -0.119576
C     -0.809296     0.275399     0.188479
H     -1.679875    -0.288257    -0.172053
H     -0.943372     0.528969     1.245034
C      0.487480     1.075786    -1.641153
H      0.013082     0.505559    -2.451834
H      1.022093     1.935603    -2.052641
C     -0.566974     1.538968    -0.635928
H     -1.488023     1.908765    -1.106140
O     -0.021095     2.528048     0.240168
P     -0.120839     4.130054    -0.300234
O     -1.510457     4.635588     0.033812
O      0.493084     4.244285    -1.673785
O      0.972653     4.742511     0.789496
C      0.680074     4.600483     2.183643
H      1.427140     3.926822     2.621865
H     -0.321698     4.175979     2.332817
C      0.748889     5.961624     2.853739
H      0.532685     5.832984     3.924169
O      2.088113     6.505370     2.790983
C      2.122486     7.394799     1.659360
H      2.986271     8.052056     1.803661
H      2.235597     6.819030     0.734384
C      0.776759     8.110619     1.710105
H      0.485362     8.528937     0.740440
H      0.822666     8.926397     2.441999
C     -0.177440     7.000141     2.182704
H     -0.710632     6.539889     1.345403
H     -0.922965     7.378840     2.891048
