32
Energy = -1142.563610287 Hartree (EUMP2 CORRECTED)
O      2.270199     0.649093     0.114840
C      1.259448     0.096528    -0.764189
H      1.334889    -0.993126    -0.690474
H      1.453879     0.411442    -1.796485
C      1.755137     1.877094     0.679049
H      1.700656     1.756292     1.770154
H      2.431904     2.702201     0.434694
C     -0.055139     0.674129    -0.268548
H     -0.388341     0.153651     0.639722
H     -0.848282     0.667098    -1.021178
C      0.374843     2.102042     0.074446
H     -0.315175     2.616485     0.755721
O      0.549696     2.877422    -1.113854
P     -0.888768     3.423609    -1.847495
O     -1.752776     4.036162    -0.768947
O     -1.369708     2.334037    -2.779664
O     -0.209709     4.673149    -2.708825
C      1.135714     4.625224    -3.178286
H      1.639756     3.696459    -2.892945
H      1.085925     4.675138    -4.275403
C      1.920502     5.843529    -2.658583
H      2.653764     6.115895    -3.432062
O      1.114654     7.002176    -2.457632
C      0.599958     6.956314    -1.101593
H      0.670241     7.981161    -0.717617
H     -0.443270     6.630709    -1.123331
C      1.480048     5.957651    -0.323604
H      0.901080     5.062913    -0.086841
H      1.861207     6.387153     0.610740
C      2.607953     5.614056    -1.313310
H      2.980603     4.592035    -1.193767
H      3.445470     6.315570    -1.210265
