32
Energy = -1142.575366244 Hartree (EUMP2 CORRECTED)
O      0.921325    -0.313562    -0.767511
C      1.744256     0.787553    -1.219817
H      2.441791     0.378601    -1.957479
H      2.301952     1.212654    -0.376651
C     -0.375944     0.217721    -0.414140
H     -1.130101    -0.315403    -1.008919
H     -0.563345     0.055544     0.652644
C      0.759004     1.801561    -1.772596
H      0.380235     1.473129    -2.750157
H      1.168108     2.812278    -1.847804
C     -0.358540     1.711819    -0.729499
H     -1.323123     2.087933    -1.094205
O     -0.006019     2.389299     0.480938
P      0.081826     4.075126     0.394151
O     -1.221121     4.551929    -0.221690
O      1.436325     4.510062    -0.106628
O      0.074229     4.332087     2.032985
C     -1.152566     4.133663     2.743216
H     -0.976877     3.371595     3.513402
H     -1.942811     3.791686     2.062206
C     -1.587264     5.433515     3.398149
H     -2.563329     5.268181     3.876127
O     -0.699644     5.831331     4.461021
C      0.377938     6.590309     3.865717
H      0.674018     7.334748     4.613472
H      1.219643     5.922675     3.656454
C     -0.173001     7.206603     2.565749
H      0.443773     6.911952     1.713719
H     -0.193957     8.301622     2.616524
C     -1.594361     6.624137     2.436820
H     -1.826238     6.317716     1.411938
H     -2.341732     7.351144     2.777245
