32
Energy = -1142.555859426 Hartree (EUMP2 CORRECTED)
O      1.273100    -0.484607    -0.009822
C      0.361281    -0.512839    -1.134840
H      0.117990    -1.564206    -1.318482
H      0.847404    -0.085127    -2.019996
C      1.036028     0.737306     0.727655
H      0.757092     0.463513     1.754476
H      1.950192     1.340346     0.741811
C     -0.816019     0.345182    -0.705547
H     -1.455120    -0.203437    -0.000221
H     -1.413297     0.721748    -1.540503
C     -0.089857     1.481456     0.018190
H     -0.733997     2.047003     0.702558
O      0.514750     2.373575    -0.920122
P     -0.549762     3.449715    -1.693430
O     -1.456506     4.024553    -0.627936
O     -1.077904     2.797193    -2.950030
O      0.604547     4.581436    -2.119901
C      1.969684     4.416605    -1.795711
H      2.102680     4.367533    -0.705383
H      2.377009     3.483752    -2.212850
C      2.761136     5.580512    -2.378651
H      2.759465     5.522338    -3.471385
O      2.209160     6.865475    -2.058481
C      2.533880     7.105013    -0.684185
H      2.539899     8.190135    -0.546722
H      1.758687     6.672757    -0.038532
C      3.912537     6.443807    -0.451210
H      3.893013     5.788221     0.425535
H      4.696439     7.190308    -0.285470
C      4.158766     5.646263    -1.750350
H      4.588622     4.654475    -1.566233
H      4.833859     6.191626    -2.418421
