32
Energy = -1142.563272047 Hartree (EUMP2 CORRECTED)
O     -0.033339    -0.781642     0.317193
C      0.640657    -0.283797    -0.855930
H      0.683779    -1.108410    -1.573758
H      1.656125     0.044339    -0.598495
C     -0.356553     0.400707     1.079550
H     -1.234029     0.158820     1.686947
H      0.487712     0.683549     1.719445
C     -0.222907     0.892633    -1.286948
H     -1.140895     0.504738    -1.747940
H      0.269993     1.588355    -1.964899
C     -0.601234     1.539907     0.057298
H     -1.657351     1.831905     0.044726
O      0.049817     2.747052     0.470412
P      1.670355     3.133551     0.420342
O      2.450768     2.251265     1.374878
O      1.745167     4.640867     0.442475
O      2.010060     2.581049    -1.134478
C      3.378741     2.356003    -1.469043
H      3.495924     1.297062    -1.739336
H      4.038336     2.565930    -0.615991
C      3.749023     3.223057    -2.658757
H      4.784378     2.993953    -2.953291
O      2.926363     2.870512    -3.800821
C      1.936477     3.903403    -3.946027
H      1.569334     3.847120    -4.976134
H      1.112135     3.735838    -3.241599
C      2.687867     5.183359    -3.608599
H      2.022106     6.017717    -3.361591
H      3.319436     5.473643    -4.457885
C      3.531334     4.729893    -2.409965
H      2.979420     4.886094    -1.476576
H      4.485769     5.264347    -2.341185
