32
Energy = -1142.569954312 Hartree (EUMP2 CORRECTED)
O      1.579335    -0.249872    -0.021170
C      1.046935    -0.038018    -1.349262
H      1.157297    -0.983949    -1.888668
H      1.616793     0.747516    -1.861387
C      0.860734     0.615496     0.889481
H      0.429521    -0.015062     1.678245
H      1.549615     1.342913     1.331368
C     -0.389086     0.402224    -1.125348
H     -1.013184    -0.459468    -0.851753
H     -0.828223     0.933718    -1.974119
C     -0.217680     1.330793     0.079472
H     -1.142788     1.487477     0.648790
O      0.318838     2.594539    -0.320962
P     -0.778933     3.679188    -1.016693
O     -1.960067     3.849269    -0.095220
O     -0.916378     3.331029    -2.487118
O      0.189807     5.019492    -0.862788
C      1.461305     5.004143    -1.522598
H      1.479074     4.257376    -2.324995
H      2.222657     4.741256    -0.774275
C      1.764215     6.382354    -2.124886
H      2.834691     6.600087    -2.028332
O      1.500617     6.406608    -3.542537
C      0.060628     6.500947    -3.651086
H     -0.145533     6.909583    -4.645079
H     -0.382094     5.502131    -3.561101
C     -0.382956     7.416777    -2.492936
H     -1.225546     6.976435    -1.954468
H     -0.676576     8.409009    -2.854850
C      0.864260     7.501206    -1.588521
H      0.619882     7.371426    -0.530948
H      1.380560     8.459000    -1.724250
