32
Energy = -1142.570195557 Hartree (EUMP2 CORRECTED)
O      0.377697    -0.101559     0.560679
C      1.363908     0.677089    -0.156629
H      2.040195    -0.036587    -0.637371
H      1.925350     1.308859     0.542667
C     -0.850665     0.663263     0.598149
H     -1.644429     0.040343     0.164334
H     -1.099511     0.908597     1.636029
C      0.550540     1.529140    -1.115112
H      0.189049     0.921317    -1.955677
H      1.075049     2.406915    -1.500688
C     -0.617566     1.935081    -0.216049
H     -1.496500     2.258238    -0.785594
O     -0.209195     2.956497     0.695119
P     -0.170100     4.554971     0.113478
O     -0.829066     4.584391    -1.244716
O      1.212469     5.074400     0.420031
O     -1.270555     5.224993     1.180557
C     -1.182942     4.909885     2.569933
H     -0.790328     5.782515     3.108514
H     -0.517498     4.054198     2.743289
C     -2.574548     4.578420     3.081801
H     -2.504154     4.325940     4.149691
O     -3.440122     5.736505     3.010920
C     -4.232274     5.594625     1.818549
H     -5.093569     6.260892     1.931202
H     -3.642469     5.879424     0.939826
C     -4.583886     4.111955     1.793494
H     -4.896643     3.764313     0.802504
H     -5.393661     3.914653     2.506765
C     -3.268982     3.469281     2.259714
H     -2.642547     3.204973     1.404993
H     -3.433530     2.567272     2.860179
