32
Energy = -1142.563263895 Hartree (EUMP2 CORRECTED)
O      1.587434     0.199102    -0.052373
C      2.000226     1.433789    -0.677570
H      2.963214     1.238177    -1.161137
H      2.123074     2.215724     0.083827
C      0.137626     0.161997    -0.053877
H     -0.169826    -0.754019    -0.575582
H     -0.230177     0.145907     0.976779
C      0.869076     1.782936    -1.628757
H      0.907519     1.138006    -2.517278
H      0.842459     2.832101    -1.931543
C     -0.347598     1.417206    -0.775063
H     -1.252099     1.253763    -1.371229
O     -0.603857     2.405268     0.226651
P     -1.409548     3.813605    -0.247709
O     -1.899625     4.462066     1.020283
O     -2.238562     3.478047    -1.462864
O     -0.089567     4.696502    -0.820814
C      0.585297     5.523949     0.130822
H     -0.035797     6.386250     0.396770
H      0.791942     4.957853     1.048476
C      1.879475     6.001657    -0.517577
H      1.886890     5.670715    -1.568961
O      1.936775     7.446793    -0.479296
C      3.274309     7.792422    -0.852163
H      3.334023     7.910138    -1.944869
H      3.499466     8.755281    -0.384283
C      4.183691     6.634858    -0.370059
H      4.904298     6.962227     0.386668
H      4.752376     6.214469    -1.206922
C      3.178685     5.613925     0.183641
H      3.040943     5.743916     1.263187
H      3.464093     4.572839    -0.002620
