32
Energy = -1142.572369432 Hartree (EUMP2 CORRECTED)
O      1.483981    -0.009327     0.092608
C      1.977573     1.123497    -0.652047
H      2.885826     0.793272    -1.166007
H      2.219775     1.948416     0.031277
C      0.052169     0.157499     0.243548
H     -0.420582    -0.774988    -0.088796
H     -0.193078     0.346321     1.293811
C      0.825964     1.503149    -1.567372
H      0.745602     0.781711    -2.391758
H      0.877406     2.519625    -1.963925
C     -0.362420     1.353010    -0.615983
H     -1.313381     1.203224    -1.137368
O     -0.463880     2.489746     0.250376
P     -1.334564     3.810505    -0.296000
O     -1.758796     4.604895     0.910006
O     -2.272447     3.369947    -1.402502
O     -0.021052     4.588070    -1.031131
C     -0.373404     5.636832    -1.934049
H     -1.055608     6.353043    -1.455050
H     -0.872660     5.212722    -2.819039
C      0.893676     6.361619    -2.351908
H      0.653203     7.023758    -3.194439
O      1.408088     7.223770    -1.322461
C      2.190044     6.398785    -0.431760
H      2.958378     7.052952    -0.006166
H      1.548046     6.010728     0.364532
C      2.761110     5.252839    -1.291228
H      2.515384     4.288989    -0.841075
H      3.850448     5.326500    -1.390942
C      2.060333     5.415393    -2.655328
H      1.719298     4.460622    -3.067756
H      2.729956     5.889836    -3.382497
