32
Energy = -1142.575501586 Hartree (EUMP2 CORRECTED)
O      1.480412     0.221800     0.361775
C      1.843449     1.325761    -0.495037
H      2.695548     0.994453    -1.097126
H      2.136683     2.192787     0.112324
C      0.058705     0.320479     0.636856
H     -0.397190    -0.637763     0.356909
H     -0.101330     0.512866     1.702026
C      0.581252     1.625488    -1.287313
H      0.437129     0.858026    -2.060893
H      0.553644     2.615385    -1.750755
C     -0.481110     1.480544    -0.199407
H     -1.488335     1.278012    -0.579174
O     -0.495698     2.662152     0.611482
P     -1.882201     3.614378     0.544200
O     -1.708157     4.667656     1.607281
O     -3.086982     2.725578     0.356663
O     -1.624768     4.323253    -0.965742
C     -0.585376     5.296032    -1.037231
H      0.363281     4.876652    -0.674410
H     -0.835726     6.169044    -0.416008
C     -0.442351     5.704768    -2.490695
H      0.320336     6.492316    -2.566016
O      0.056647     4.600098    -3.285602
C     -1.075899     4.009732    -3.945676
H     -0.684551     3.425549    -4.784700
H     -1.617890     3.358934    -3.248976
C     -1.922913     5.208524    -4.355076
H     -2.963480     4.941857    -4.571336
H     -1.488618     5.677184    -5.246487
C     -1.785510     6.124851    -3.129804
H     -2.597864     5.940115    -2.421431
H     -1.790384     7.186750    -3.399783
