32
Energy = -1142.567918671 Hartree (EUMP2 CORRECTED)
O      0.413204    -0.385379     0.081353
C      1.585606     0.448134     0.139162
H      2.447376    -0.204098    -0.031477
H      1.670092     0.922728     1.126627
C     -0.705214     0.481135    -0.227593
H     -1.300581    -0.025968    -0.995071
H     -1.314018     0.649103     0.667251
C      1.348663     1.493906    -0.938597
H      1.504208     1.050903    -1.931467
H      1.962199     2.392030    -0.830482
C     -0.130568     1.821206    -0.711208
H     -0.653732     2.185814    -1.602159
O     -0.244353     2.771667     0.348294
P     -0.652531     4.354348    -0.039376
O     -0.706651     5.107739     1.256655
O     -1.758472     4.303680    -1.078628
O      0.740981     4.876781    -0.835210
C      0.868198     4.717959    -2.246962
H     -0.060349     4.309624    -2.661748
H      1.689653     4.020893    -2.460531
C      1.142903     6.069631    -2.938795
H      2.217097     6.196969    -3.120034
O      0.529480     6.094120    -4.244815
C     -0.841497     6.537256    -4.063585
H     -1.045172     7.241698    -4.878127
H     -1.516702     5.678454    -4.158598
C     -0.930679     7.174065    -2.664707
H     -1.486709     6.518430    -1.988816
H     -1.422276     8.153147    -2.689987
C      0.536172     7.264399    -2.218613
H      0.655076     7.206972    -1.134665
H      1.009526     8.179458    -2.597082
