32
Energy = -1142.569264693 Hartree (EUMP2 CORRECTED)
O      1.200039     0.264749     0.776833
C      1.868058     1.535597     0.625181
H      2.935902     1.351674     0.780862
H      1.501284     2.246305     1.377434
C     -0.005011     0.301252    -0.027990
H      0.014111    -0.576355    -0.686727
H     -0.886200     0.262645     0.619994
C      1.494741     1.990739    -0.775177
H      2.058581     1.416492    -1.523057
H      1.624451     3.056400    -0.964806
C      0.016469     1.610630    -0.818038
H     -0.363673     1.503608    -1.838915
O     -0.765031     2.559240    -0.088535
P     -1.348661     3.903792    -0.901828
O     -2.835814     4.009746    -0.685332
O     -0.705099     3.946550    -2.278260
O     -0.558205     5.026232     0.072230
C     -0.488565     6.358942    -0.439478
H     -1.129516     7.002332     0.177892
H     -0.835151     6.405008    -1.481763
C      0.943082     6.859893    -0.379975
H      0.958757     7.903394    -0.726857
O      1.423793     6.896172     0.984688
C      2.203601     5.704738     1.181978
H      2.830859     5.879393     2.062190
H      1.539970     4.849331     1.354039
C      2.978272     5.559349    -0.123117
H      3.370459     4.548182    -0.279965
H      3.822024     6.260524    -0.124806
C      1.925958     5.965887    -1.166619
H      1.388666     5.102029    -1.569887
H      2.368981     6.507539    -2.009989
