32
Energy = -1142.574120226 Hartree (EUMP2 CORRECTED)
O      0.184749    -0.558815    -0.514861
C      1.365447     0.212260    -0.835872
H      2.054927    -0.465362    -1.349015
H      1.831036     0.585212     0.085423
C     -0.943620     0.347768    -0.493740
H     -1.700990    -0.048925    -1.182360
H     -1.355804     0.405018     0.518857
C      0.853681     1.362648    -1.684272
H      0.615970     1.008919    -2.697060
H      1.513248     2.232357    -1.737862
C     -0.430479     1.718377    -0.935373
H     -1.163127     2.254732    -1.553036
O     -0.128225     2.466231     0.246608
P     -0.039128     4.140324     0.051169
O     -1.447232     4.699979     0.079202
O      0.949824     4.457089    -1.046633
O      0.720450     4.448272     1.494568
C     -0.063433     4.702938     2.664227
H      0.276450     4.014868     3.449076
H     -1.127918     4.534809     2.456898
C      0.138903     6.136181     3.126033
H     -0.518999     6.314156     3.988704
O      1.477348     6.369056     3.606038
C      2.294844     6.719115     2.464888
H      3.046167     7.425771     2.835516
H      2.790226     5.820236     2.084586
C      1.353381     7.319229     1.403553
H      1.431311     6.763429     0.466278
H      1.590300     8.371171     1.204733
C     -0.054327     7.169488     2.014030
H     -0.796771     6.842762     1.279304
H     -0.383480     8.114837     2.462315
