32
Energy = -1142.571026008 Hartree (EUMP2 CORRECTED)
O      0.966295     0.127551     0.572440
C      1.691269     1.111874    -0.196884
H      2.510964     0.582768    -0.692868
H      2.099389     1.885216     0.467663
C     -0.388560     0.615873     0.727855
H     -1.066475    -0.199884     0.448822
H     -0.561583     0.905744     1.769969
C      0.648606     1.697943    -1.131587
H      0.416384     0.977855    -1.928576
H      0.898462     2.666504    -1.571005
C     -0.546275     1.835453    -0.187317
H     -1.512155     1.823111    -0.697095
O     -0.416333     3.000377     0.637773
P     -0.904533     4.501555     0.049332
O     -0.547222     4.568521    -1.422699
O     -0.509947     5.495052     1.102909
O     -2.581980     4.360119     0.148557
C     -3.354642     3.848187    -0.931163
H     -2.726732     3.346516    -1.674633
H     -3.861060     4.686487    -1.439375
C     -4.409392     2.904955    -0.377215
H     -5.068210     2.591362    -1.199938
O     -3.807418     1.690366     0.126782
C     -3.693630     1.835795     1.555282
H     -3.569770     0.828640     1.965945
H     -2.822610     2.454038     1.801302
C     -4.998907     2.515531     1.950311
H     -4.946319     2.999016     2.932097
H     -5.807692     1.774919     1.967524
C     -5.197487     3.518811     0.803532
H     -4.766054     4.488714     1.066076
H     -6.254580     3.661643     0.552365
