32
Energy = -1142.564988517 Hartree (EUMP2 CORRECTED)
O      1.408392     0.225205     0.593111
C      2.059331     1.369216    -0.003156
H      3.048129     1.033286    -0.329882
H      2.166819     2.171144     0.738765
C     -0.019984     0.416437     0.458730
H     -0.431739    -0.498026     0.012846
H     -0.466518     0.582487     1.445092
C      1.124149     1.789402    -1.122971
H      1.201731     1.085242    -1.962431
H      1.255268     2.809549    -1.489960
C     -0.231848     1.642230    -0.435347
H     -1.049939     1.513996    -1.153286
O     -0.476486     2.762384     0.424126
P     -1.225374     4.114952    -0.246379
O     -0.976857     4.086647    -1.738368
O     -0.922571     5.282670     0.653956
O     -2.844383     3.736513     0.025088
C     -3.362526     2.466800     0.377592
H     -2.596919     1.835778     0.843427
H     -3.752667     1.959389    -0.523054
C     -4.496259     2.664019     1.374331
H     -5.058750     1.723065     1.454480
O     -4.011328     2.939943     2.696305
C     -3.734049     4.361625     2.763532
H     -3.897657     4.649071     3.807664
H     -2.695051     4.554439     2.481750
C     -4.705943     5.038713     1.777937
H     -4.145699     5.663980     1.080006
H     -5.443391     5.660674     2.299137
C     -5.386209     3.866451     1.041696
H     -5.456835     4.040132    -0.036772
H     -6.393345     3.688338     1.437488
