32
Energy = -1142.560405610 Hartree (EUMP2 CORRECTED)
O      1.605844     0.295168    -0.229053
C      2.047760     1.362553    -1.085373
H      2.267416     0.958914    -2.086919
H      2.966802     1.766861    -0.653078
C      0.168088     0.326440    -0.234498
H     -0.212883    -0.116009    -1.174008
H     -0.174997    -0.224769     0.638880
C      0.909884     2.399285    -1.129380
H      0.529553     2.525970    -2.150946
H      1.223551     3.372120    -0.745818
C     -0.183999     1.808786    -0.223879
H     -1.184218     1.960688    -0.659054
O     -0.180994     2.483868     1.028859
P     -0.174612     1.916096     2.622436
O     -0.026004     0.410742     2.637059
O     -1.251515     2.678564     3.345989
O      1.261586     2.627837     3.098308
C      2.477039     2.041820     2.625729
H      2.309589     1.426714     1.734988
H      2.893365     1.393006     3.413247
C      3.461110     3.155836     2.319493
H      4.442326     2.705386     2.111884
O      3.111017     3.886834     1.129205
C      2.179580     4.929244     1.508347
H      2.388263     5.776530     0.844335
H      1.157828     4.572629     1.351191
C      2.440152     5.240510     2.994729
H      1.528836     5.078503     3.573321
H      2.776263     6.274084     3.140658
C      3.527512     4.231213     3.408170
H      3.350436     3.816458     4.405897
H      4.519311     4.699520     3.392581
