32
Energy = -1142.568082696 Hartree (EUMP2 CORRECTED)
O      2.063188     0.884786    -1.012860
C      1.563655     1.927168    -1.886657
H      1.931267     1.699035    -2.892347
H      1.944914     2.904975    -1.568408
C      1.090406     0.677713     0.039134
H      0.774010    -0.373880     0.002915
H      1.546702     0.895418     1.010039
C      0.053995     1.864030    -1.735590
H     -0.349595     0.999031    -2.280366
H     -0.459401     2.775944    -2.047629
C     -0.074440     1.626224    -0.229584
H     -1.047604     1.216612     0.064286
O      0.186858     2.822915     0.511251
P     -1.038171     3.958851     0.654277
O     -0.595161     4.946242     1.708021
O     -2.358415     3.225328     0.643450
O     -0.860950     4.704177    -0.854116
C     -0.559087     6.094456    -0.860199
H     -0.872069     6.484396    -1.837993
H     -1.108182     6.612968    -0.064105
C      0.928088     6.346686    -0.683825
H      1.313049     5.652497     0.069338
O      1.649188     6.073012    -1.925139
C      2.324508     7.263675    -2.340223
H      3.234547     6.960944    -2.868852
H      1.692496     7.844187    -3.033788
C      2.569459     8.048464    -1.057169
H      2.783610     9.109328    -1.233842
H      3.408355     7.608529    -0.505260
C      1.253514     7.798511    -0.321434
H      0.474574     8.472258    -0.707815
H      1.307346     7.931371     0.763163
