32
Energy = -1142.556982340 Hartree (EUMP2 CORRECTED)
O      0.767646     0.820703    -1.564701
C      1.686781     1.880159    -1.227324
H      2.417731     1.940149    -2.040358
H      2.196887     1.652825    -0.282465
C     -0.511219     1.143755    -0.980037
H     -1.240438     1.230559    -1.799472
H     -0.818804     0.352437    -0.297566
C      0.799540     3.107061    -1.081288
H      1.260157     3.928027    -0.525174
H      0.471199     3.456609    -2.070220
C     -0.374193     2.509167    -0.294266
H     -1.300139     3.088351    -0.406511
O     -0.049463     2.557395     1.086093
P      0.546238     1.497116     2.235697
O     -0.530905     1.248880     3.266740
O      1.936801     1.980400     2.577707
O      0.725116     0.115163     1.303045
C      0.166265    -1.123675     1.743099
H     -0.487951    -1.509869     0.946901
H     -0.426318    -0.963942     2.653000
C      1.271937    -2.135706     1.994650
H      0.826566    -3.024558     2.463486
O      1.869546    -2.605575     0.772113
C      2.877055    -1.635401     0.396501
H      3.644907    -2.195230    -0.149328
H      2.425783    -0.887820    -0.263101
C      3.386036    -1.002360     1.705764
H      3.309374     0.087356     1.677991
H      4.428464    -1.278589     1.905749
C      2.445014    -1.560959     2.792496
H      2.134418    -0.782333     3.496131
H      2.927526    -2.371488     3.352131
