32
Energy = -1142.570939110 Hartree (EUMP2 CORRECTED)
O      1.022941    -0.192341    -0.002274
C      2.051857     0.640930     0.548757
H      2.942645     0.016919     0.669518
H      1.744934     1.041242     1.526163
C      0.022784     0.708225    -0.547472
H     -0.356113     0.251271    -1.465666
H     -0.799200     0.836267     0.162837
C      2.185761     1.760425    -0.472890
H      2.699216     1.380310    -1.365537
H      2.700442     2.652319    -0.103285
C      0.718650     2.064947    -0.785493
H      0.558332     2.412249    -1.812452
O      0.287520     3.051440     0.153747
P     -1.238815     3.752704    -0.083964
O     -1.810948     4.000975     1.281566
O     -1.899066     2.976465    -1.206439
O     -0.775079     5.253628    -0.668291
C     -0.597291     5.466427    -2.067206
H     -1.422154     6.092091    -2.435357
H     -0.620550     4.515317    -2.616024
C      0.718084     6.186418    -2.310441
H      0.853121     6.298883    -3.395682
O      0.714371     7.525397    -1.781503
C      1.106684     7.447345    -0.390776
H      1.662429     8.368136    -0.181070
H      0.211718     7.402657     0.236677
C      1.953785     6.169229    -0.235800
H      1.505417     5.496881     0.498528
H      2.979839     6.399752     0.075251
C      1.919924     5.524652    -1.633075
H      1.819973     4.438116    -1.577429
H      2.827851     5.768333    -2.198487
