32
Energy = -1142.573024771 Hartree (EUMP2 CORRECTED)
O      1.349889    -0.027752    -0.176589
C      1.955771     1.161020     0.380879
H      3.039603     1.024638     0.312962
H      1.662931     1.272006     1.432865
C      0.067208     0.348587    -0.732580
H      0.051182     0.021636    -1.780438
H     -0.737234    -0.144310    -0.176678
C      1.403855     2.301373    -0.456190
H      1.894958     2.321283    -1.438825
H      1.458191     3.289974     0.006977
C     -0.053611     1.866955    -0.607311
H     -0.561072     2.320208    -1.466477
O     -0.787402     2.137599     0.596796
P     -1.462994     3.657247     0.762730
O     -0.417624     4.723714     0.515550
O     -2.344495     3.621339     1.987894
O     -2.433118     3.531460    -0.612111
C     -3.490712     4.474848    -0.767329
H     -3.292718     5.075411    -1.664981
H     -3.561982     5.145297     0.101307
C     -4.802182     3.724532    -0.927776
H     -5.607407     4.453477    -1.102045
O     -4.764677     2.892351    -2.113450
C     -4.477517     1.552283    -1.677019
H     -4.790149     0.883752    -2.486024
H     -3.403195     1.442142    -1.488190
C     -5.280248     1.402735    -0.390866
H     -4.915014     0.588972     0.245494
H     -6.332367     1.210910    -0.636053
C     -5.103156     2.783491     0.258970
H     -4.265116     2.790259     0.963159
H     -6.001718     3.102640     0.799290
