32
Energy = -1142.569386014 Hartree (EUMP2 CORRECTED)
O      1.455333    -0.286510     0.621696
C      2.101838     0.610504    -0.292616
H      2.972241     0.084937    -0.698735
H      2.432036     1.520825     0.227647
C      0.055291     0.113159     0.713273
H     -0.544156    -0.791409     0.555305
H     -0.149132     0.539942     1.696873
C      1.023163     0.937496    -1.313256
H      0.865360     0.076525    -1.975678
H      1.215522     1.834114    -1.909890
C     -0.185738     1.141028    -0.404905
H     -1.142023     0.956027    -0.914911
O     -0.151495     2.506247     0.017870
P     -1.241686     3.062842     1.186158
O     -0.904923     2.418539     2.519125
O     -2.632930     3.071236     0.607485
O     -0.669347     4.621127     1.187261
C      0.627571     4.863696     1.739056
H      1.283575     5.207736     0.929024
H      1.040043     3.946892     2.181014
C      0.527788     5.933145     2.813026
H      1.533095     6.107422     3.222658
O      0.113327     7.200297     2.252256
C     -1.314279     7.282108     2.424512
H     -1.580647     8.339832     2.328085
H     -1.818610     6.692612     1.651567
C     -1.555837     6.702189     3.814888
H     -2.577934     6.328966     3.940933
H     -1.370942     7.473673     4.572309
C     -0.505267     5.580684     3.906106
H     -0.940003     4.596997     3.707124
H     -0.034385     5.547491     4.895052
