32
Energy = -1142.556537510 Hartree (EUMP2 CORRECTED)
O      1.893833     0.890558    -0.831268
C      2.208392     2.283661    -0.627239
H      3.140991     2.483599    -1.164859
H      2.335170     2.487566     0.443902
C      0.450634     0.747057    -0.749368
H      0.103435     0.325696    -1.703470
H      0.204494     0.073485     0.068239
C      0.992568     3.013022    -1.175555
H      0.981030     2.959387    -2.273141
H      0.903796     4.053167    -0.849804
C     -0.128998     2.159201    -0.579998
H     -1.074868     2.253601    -1.134593
O     -0.356231     2.646653     0.735629
P     -0.446955     1.992262     2.281423
O     -1.741054     2.494622     2.876070
O      0.911356     2.136113     2.918803
O     -0.607610     0.347233     1.969659
C     -1.909989    -0.164523     1.694276
H     -2.151559    -0.042368     0.626147
H     -2.662074     0.372013     2.288422
C     -1.896252    -1.640355     2.042302
H     -2.890412    -2.064594     1.842404
O     -0.980206    -2.355910     1.178402
C      0.236899    -2.552616     1.922901
H      0.776780    -3.368665     1.432564
H      0.839880    -1.637383     1.907875
C     -0.246722    -2.873395     3.331767
H      0.528645    -2.726215     4.091633
H     -0.588719    -3.914753     3.375634
C     -1.424634    -1.900467     3.490110
H     -1.087810    -0.961302     3.938148
H     -2.229309    -2.313360     4.108513
