32
Energy = -1142.561551020 Hartree (EUMP2 CORRECTED)
O      0.496910     0.085444     1.228835
C      1.499688     1.001359     0.728811
H      2.472484     0.528655     0.898177
H      1.448456     1.950478     1.276855
C     -0.700137     0.257018     0.432080
H     -0.952529    -0.717728    -0.006706
H     -1.520568     0.601143     1.069870
C      1.139609     1.207142    -0.731578
H      1.421945     0.324517    -1.321992
H      1.576472     2.104347    -1.176255
C     -0.384382     1.294449    -0.641915
H     -0.880334     1.096790    -1.598387
O     -0.812754     2.563585    -0.130578
P     -0.727086     3.879251    -1.158800
O     -1.630441     4.962156    -0.618824
O     -0.796534     3.364896    -2.582162
O      0.871683     4.315598    -0.827730
C      1.152270     5.694627    -0.616571
H      0.281494     6.204548    -0.188325
H      1.965720     5.707405     0.121180
C      1.631919     6.422480    -1.897809
H      2.504817     7.033058    -1.616779
O      2.094347     5.547714    -2.932636
C      1.140114     5.601896    -4.014126
H      1.678232     5.295444    -4.917062
H      0.316068     4.905935    -3.815519
C      0.684493     7.057508    -4.021628
H     -0.253274     7.207430    -4.568980
H      1.460403     7.690391    -4.471556
C      0.549067     7.332005    -2.518465
H     -0.442854     7.021848    -2.169233
H      0.695410     8.383952    -2.249172
