32
Energy = -1142.567940707 Hartree (EUMP2 CORRECTED)
O      0.403698     0.087100     1.349580
C      1.452452     0.930408     0.819974
H      2.399021     0.413023     1.006038
H      1.452961     1.898690     1.336688
C     -0.786893     0.304793     0.553929
H     -1.103817    -0.668335     0.155869
H     -1.578547     0.725251     1.182297
C      1.101696     1.106034    -0.646816
H      1.336862     0.190188    -1.206251
H      1.583263     1.964459    -1.120990
C     -0.415665     1.279001    -0.561429
H     -0.923680     1.069576    -1.509038
O     -0.772274     2.590498    -0.105761
P     -0.670275     3.847921    -1.207849
O     -1.480976     4.996528    -0.657696
O     -0.838733     3.269189    -2.596619
O      0.966194     4.217994    -1.034769
C      1.341566     5.525115    -0.607844
H      0.530019     6.010184    -0.053027
H      2.198887     5.376589     0.063263
C      1.779172     6.401219    -1.792691
H      2.544045     7.099029    -1.416826
O      2.413937     5.658578    -2.840331
C      1.437656     5.511041    -3.893014
H      1.996900     5.268181    -4.802373
H      0.738651     4.701267    -3.652840
C      0.742297     6.869119    -3.928762
H     -0.225307     6.834271    -4.441710
H      1.384473     7.601399    -4.434457
C      0.609507     7.187501    -2.430332
H     -0.346081     6.816550    -2.043954
H      0.677079     8.259179    -2.212937
