32
Energy = -1142.557410980 Hartree (EUMP2 CORRECTED)
O      0.524620    -0.772379     0.396623
C     -0.464697    -0.757947    -0.659882
H     -0.831941    -1.783968    -0.763344
H     -0.004183    -0.432697    -1.600779
C      0.488307     0.513619     1.059855
H      0.276038     0.337222     2.123049
H      1.458481     1.010179     0.953784
C     -1.507513     0.246566    -0.201995
H     -2.142508    -0.188585     0.581740
H     -2.127315     0.637547    -1.013511
C     -0.611227     1.334650     0.393858
H     -1.137093     1.999932     1.089280
O      0.003560     2.107735    -0.639690
P     -1.008284     3.226216    -1.415945
O     -1.854778     3.910968    -0.368808
O     -1.599592     2.553068    -2.635532
O      0.202414     4.271182    -1.905946
C      1.573784     3.881460    -1.892087
H      1.967620     3.914198    -0.869294
H      1.703801     2.864431    -2.280416
C      2.320411     4.893284    -2.750209
H      1.720581     5.814759    -2.808739
O      3.591703     5.179836    -2.115469
C      4.417337     5.824788    -3.096138
H      4.385776     6.913511    -2.944954
H      5.442857     5.480354    -2.927921
C      3.859611     5.430612    -4.483672
H      4.629304     5.006738    -5.137580
H      3.436986     6.304063    -4.992707
C      2.755283     4.428097    -4.133833
H      3.158308     3.412542    -4.046100
H      1.929569     4.412278    -4.852891
