32
Energy = -1142.569000600 Hartree (EUMP2 CORRECTED)
O      1.778028    -0.287134     0.078780
C      2.608260     0.877973     0.124744
H      3.561291     0.626772    -0.349810
H      2.789361     1.168493     1.172107
C      0.470379     0.203585     0.466296
H     -0.270073    -0.529307     0.151546
H      0.425695     0.318439     1.554634
C      1.789618     1.940556    -0.602619
H      1.941542     1.849958    -1.684039
H      2.010598     2.966886    -0.294431
C      0.341269     1.580742    -0.223879
H     -0.288272     1.484754    -1.120261
O     -0.194306     2.628215     0.584412
P     -1.548644     2.403117     1.557966
O     -1.290996     3.193021     2.819576
O     -1.976493     0.956976     1.507938
O     -2.679362     3.224358     0.634844
C     -2.692299     4.653245     0.678075
H     -2.552895     5.027407    -0.345176
H     -1.885402     5.028684     1.321036
C     -4.026379     5.139882     1.217972
H     -3.988381     6.235652     1.298957
O     -5.114100     4.856959     0.315534
C     -5.584698     3.520388     0.605135
H     -6.663320     3.529631     0.410461
H     -5.094399     2.809645    -0.067441
C     -5.225661     3.225204     2.073761
H     -4.610533     2.325114     2.140802
H     -6.123344     3.079625     2.686406
C     -4.430392     4.464101     2.529912
H     -3.557350     4.198770     3.134204
H     -5.072583     5.147411     3.098988
