32
Energy = -1142.568892447 Hartree (EUMP2 CORRECTED)
O      0.542272    -0.404872     0.248739
C      1.368632     0.268024    -0.730277
H      1.873348    -0.512550    -1.308136
H      2.114905     0.892098    -0.222747
C     -0.613628     0.426852     0.504669
H     -1.510379    -0.170070     0.291487
H     -0.619080     0.739175     1.554215
C      0.403848     1.126058    -1.529493
H     -0.168922     0.502440    -2.229636
H      0.868738     1.960531    -2.061376
C     -0.508796     1.640724    -0.415299
H     -1.489837     1.985036    -0.767787
O      0.137698     2.683789     0.319346
P     -0.012900     4.236306    -0.343705
O     -1.477656     4.617547    -0.233296
O      0.752397     4.325927    -1.641264
O      0.864797     5.029991     0.824463
C      0.936201     4.595851     2.182513
H      1.987077     4.373495     2.408862
H      0.340918     3.688905     2.343160
C      0.439262     5.701603     3.098229
H      0.518742     5.351267     4.138271
O      1.297059     6.864879     3.012581
C      0.639727     7.805101     2.144092
H      1.087773     8.784091     2.343124
H      0.799383     7.522396     1.097164
C     -0.829511     7.693620     2.530637
H     -1.503876     8.078103     1.757583
H     -1.006570     8.247669     3.461072
C     -0.986144     6.180365     2.744071
H     -1.333526     5.697725     1.824358
H     -1.694673     5.946914     3.547271
