32
Energy = -1142.573674932 Hartree (EUMP2 CORRECTED)
O      0.257087    -0.147518    -0.818251
C      1.251258     0.627139    -0.109262
H      2.218128     0.152305    -0.302983
H      1.040638     0.610088     0.967960
C     -0.832353     0.741947    -1.159801
H     -0.998268     0.662223    -2.242256
H     -1.736581     0.438352    -0.623254
C      1.107130     2.031495    -0.666382
H      1.541761     2.084083    -1.674121
H      1.519922     2.830270    -0.046578
C     -0.413962     2.155200    -0.747447
H     -0.744797     2.917699    -1.463585
O     -0.974866     2.408620     0.547253
P     -1.051604     4.018981     1.044148
O      0.178061     4.729307     0.531846
O     -1.506878     3.989918     2.482907
O     -2.345611     4.488198     0.076540
C     -3.544633     4.987570     0.667389
H     -3.824419     5.888411     0.106012
H     -3.376435     5.247170     1.720657
C     -4.678462     3.979070     0.571948
H     -5.590025     4.454837     0.964282
O     -4.967325     3.667790    -0.814101
C     -4.362607     2.393360    -1.088727
H     -4.845634     2.000622    -1.989627
H     -3.287661     2.520860    -1.261898
C     -4.624188     1.584581     0.174883
H     -3.966199     0.714625     0.273533
H     -5.665775     1.239155     0.177205
C     -4.382076     2.633366     1.268635
H     -3.347642     2.606301     1.618072
H     -5.031364     2.486675     2.139162
