32
Energy = -1142.565819600 Hartree (EUMP2 CORRECTED)
O     -0.171413    -0.695430    -0.541553
C      0.636022     0.109359    -1.419017
H      0.726935    -0.440107    -2.361141
H      1.628399     0.276043    -0.983039
C     -0.580745     0.188781     0.526445
H     -1.569665    -0.154369     0.849137
H      0.134506     0.143523     1.350599
C     -0.144713     1.411843    -1.516050
H     -1.005142     1.270487    -2.183269
H      0.451302     2.265199    -1.848570
C     -0.628447     1.619242    -0.067654
H     -1.646823     2.021493    -0.044421
O      0.130800     2.625888     0.620067
P      1.684926     2.507092     1.197403
O      1.994826     1.131438     1.748870
O      1.947314     3.777474     1.969019
O      2.424946     2.629649    -0.317269
C      3.836422     2.421028    -0.358586
H      4.039101     1.523205    -0.958825
H      4.251647     2.261651     0.646997
C      4.495991     3.627914    -1.001780
H      5.577584     3.441419    -1.078776
O      4.027179     3.787002    -2.364451
C      3.047133     4.839442    -2.352250
H      2.958422     5.200061    -3.382452
H      2.083411     4.449947    -2.002710
C      3.613843     5.858110    -1.372402
H      2.856862     6.555136    -0.995997
H      4.410293     6.433281    -1.861368
C      4.176206     4.949167    -0.270206
H      3.428228     4.776674     0.511214
H      5.072572     5.370705     0.199076
