32
Energy = -1142.568222094 Hartree (EUMP2 CORRECTED)
O      1.046247    -0.201280    -1.704919
C      2.088811     0.796696    -1.749353
H      2.689838     0.588297    -2.639543
H      2.704337     0.729718    -0.844822
C      0.118099     0.310145    -0.731151
H     -0.833879    -0.203955    -0.895674
H      0.484743     0.132924     0.285313
C      1.334409     2.124067    -1.791810
H      1.889055     2.960055    -1.354869
H      1.077130     2.378518    -2.827037
C      0.043439     1.831401    -0.986149
H     -0.839450     2.074285    -1.587748
O     -0.137920     2.598516     0.206354
P      1.137518     2.842889     1.284543
O      1.746159     4.197476     0.981111
O      1.958084     1.580862     1.397427
O      0.209742     2.956786     2.657441
C     -0.596965     4.123753     2.842161
H     -1.648702     3.810271     2.852936
H     -0.436058     4.841419     2.026790
C     -0.240149     4.779896     4.164973
H     -0.881399     5.663181     4.298312
O     -0.546292     3.906491     5.276755
C      0.676761     3.228525     5.621040
H      0.546922     2.846548     6.638959
H      0.854488     2.401288     4.925624
C      1.747666     4.306473     5.489970
H      2.749036     3.887837     5.341744
H      1.758739     4.925301     6.395596
C      1.263246     5.117762     4.275671
H      1.780884     4.825705     3.357497
H      1.414940     6.193540     4.419286
