32
Energy = -1142.562828755 Hartree (EUMP2 CORRECTED)
O      1.205914    -0.031817     0.136859
C      1.952246     1.190001    -0.049504
H      2.974650     0.899445    -0.310944
H      1.960111     1.775042     0.879667
C     -0.186382     0.267173    -0.128628
H     -0.552313    -0.489385    -0.833840
H     -0.764103     0.221045     0.800343
C      1.199316     1.930080    -1.141459
H      1.392878     1.451378    -2.112345
H      1.414863     3.000455    -1.198308
C     -0.248865     1.683366    -0.710256
H     -0.980166     1.762413    -1.524222
O     -0.602164     2.579066     0.346144
P     -1.441325     3.973107    -0.066168
O     -1.669293     4.716488     1.218395
O     -2.518461     3.610134    -1.071273
O     -0.213432     4.754945    -0.935782
C     -0.477557     5.059534    -2.293231
H     -0.645848     4.132174    -2.861972
H     -1.382294     5.674219    -2.413081
C      0.715174     5.798155    -2.881908
H      0.809016     6.790969    -2.429184
O      1.955392     5.110017    -2.565426
C      2.337011     4.349861    -3.711383
H      3.399490     4.112534    -3.602521
H      1.767708     3.408360    -3.766403
C      2.001286     5.261847    -4.881193
H      1.948994     4.742034    -5.844851
H      2.752971     6.056093    -4.951859
C      0.650784     5.827341    -4.429792
H     -0.169204     5.188589    -4.781286
H      0.465983     6.836159    -4.815026
