32
Energy = -1142.574288874 Hartree (EUMP2 CORRECTED)
O      1.990346     0.405277    -0.478325
C      1.918608     1.370602    -1.551818
H      2.511954     0.970195    -2.380441
H      2.349681     2.325047    -1.223850
C      0.735834     0.441634     0.246492
H      0.296376    -0.564137     0.204958
H      0.922843     0.722549     1.287702
C      0.436287     1.519639    -1.848722
H      0.075288     0.658826    -2.428059
H      0.175162     2.446764    -2.364559
C     -0.153657     1.474836    -0.437936
H     -1.215755     1.207193    -0.430192
O      0.034082     2.715392     0.251050
P     -1.024896     3.979651    -0.114278
O     -0.929852     4.954090     1.033482
O     -2.294001     3.364376    -0.650938
O     -0.214310     4.639103    -1.438363
C      0.508853     5.863896    -1.290093
H      0.067425     6.487423    -0.505031
H      0.444961     6.385371    -2.252356
C      1.969080     5.582229    -0.973467
H      2.359919     4.864120    -1.710813
O      2.710748     6.828839    -1.140216
C      3.544918     7.043245     0.012889
H      4.496107     7.458939    -0.338659
H      3.065412     7.773781     0.681550
C      3.662196     5.683411     0.688750
H      3.927351     5.757625     1.749728
H      4.422497     5.072973     0.184474
C      2.262901     5.117708     0.450186
H      1.533669     5.555439     1.141371
H      2.186963     4.032433     0.552846
