32
Energy = -1142.561667916 Hartree (EUMP2 CORRECTED)
O      0.783567    -0.414970     0.853055
C      1.987113     0.348325     0.671104
H      2.824286    -0.355379     0.719802
H      2.089992     1.101467     1.464358
C     -0.300735     0.321702     0.224023
H     -0.848204    -0.386412    -0.408673
H     -0.972447     0.736803     0.979302
C      1.798582     1.019854    -0.681526
H      1.926864     0.281772    -1.484437
H      2.462462     1.872406    -0.852388
C      0.339346     1.459027    -0.585819
H     -0.159428     1.567011    -1.551622
O      0.307522     2.677880     0.164160
P     -0.956264     3.758611    -0.132876
O     -0.835428     4.865619     0.874889
O     -2.188250     2.911290    -0.372419
O     -0.515141     4.441140    -1.611744
C      0.228135     3.833663    -2.645374
H     -0.384702     3.109678    -3.204196
H      1.120101     3.324026    -2.248799
C      0.694553     4.931940    -3.588636
H      1.332557     4.480650    -4.361885
O     -0.416301     5.523324    -4.294510
C     -0.783301     6.712670    -3.569938
H     -1.374185     7.327770    -4.255818
H     -1.377014     6.445350    -2.689555
C      0.555460     7.325847    -3.173766
H      0.469667     8.017624    -2.328903
H      0.980370     7.866034    -4.028467
C      1.398406     6.084692    -2.835927
H      1.376716     5.888474    -1.760259
H      2.441113     6.195363    -3.154245
