32
Energy = -1142.568365593 Hartree (EUMP2 CORRECTED)
O     -0.076454    -0.366140     1.118643
C      1.042970     0.539917     1.005144
H      1.926324    -0.003715     1.354972
H      0.878972     1.423048     1.636343
C     -1.042770    -0.005421     0.101258
H     -1.250636    -0.906510    -0.490078
H     -1.963794     0.350186     0.574269
C      1.073289     0.927946    -0.462861
H      1.472430     0.100842    -1.065701
H      1.629147     1.844985    -0.672327
C     -0.420123     1.102524    -0.746863
H     -0.666563     1.025167    -1.811225
O     -0.903972     2.349626    -0.233456
P     -0.644030     3.724686    -1.155858
O     -1.565979     4.797944    -0.635280
O     -0.534376     3.301459    -2.604495
O      0.926945     4.088164    -0.650258
C      1.177587     5.346137    -0.021733
H      2.009993     5.189462     0.674791
H      0.290190     5.653112     0.541722
C      1.578518     6.462395    -1.012360
H      0.959221     7.350668    -0.852009
O      2.940529     6.900467    -0.755804
C      3.794612     5.924247    -1.384610
H      4.699505     6.456780    -1.695348
H      4.078057     5.154506    -0.652447
C      2.992714     5.316326    -2.554244
H      2.843968     4.242495    -2.415250
H      3.489232     5.477658    -3.517646
C      1.637029     6.033622    -2.475067
H      0.811131     5.389664    -2.784412
H      1.639634     6.940544    -3.092031
