32
Energy = -1142.569906880 Hartree (EUMP2 CORRECTED)
O      2.002847     0.662330     0.337821
C      2.226324     1.543947    -0.787307
H      3.014145     1.087548    -1.394866
H      2.558001     2.527494    -0.430821
C      0.614923     0.783334     0.729695
H      0.168078    -0.219046     0.692896
H      0.551377     1.179772     1.748386
C      0.875381     1.649154    -1.472488
H      0.666127     0.733615    -2.042903
H      0.753505     2.528381    -2.110858
C     -0.050248     1.739320    -0.258146
H     -1.090866     1.461272    -0.471722
O      0.002427     3.049891     0.314091
P     -1.051327     4.181234    -0.371025
O     -2.476583     3.796789    -0.034718
O     -0.597749     4.471293    -1.784197
O     -0.531452     5.381241     0.659146
C     -1.471255     6.237037     1.307747
H     -2.477992     5.805148     1.267979
H     -1.468727     7.212566     0.795271
C     -1.047565     6.432373     2.757998
H     -1.547188     7.329013     3.149858
O     -1.470911     5.356735     3.610650
C     -0.495836     4.297908     3.468639
H     -0.490219     3.761224     4.423688
H     -0.799812     3.619887     2.666018
C      0.845287     4.981601     3.135952
H      1.257157     4.558343     2.217417
H      1.574682     4.856788     3.945237
C      0.473916     6.466272     2.941508
H      0.985864     6.912451     2.083229
H      0.712248     7.048518     3.839876
