32
Energy = -1142.571522941 Hartree (EUMP2 CORRECTED)
O      0.571545    -0.495991    -0.026302
C      1.404552     0.290193    -0.909940
H      1.946488    -0.417281    -1.545287
H      2.118582     0.881704    -0.323098
C     -0.602542     0.287694     0.291259
H     -1.484323    -0.306416     0.017348
H     -0.622835     0.506872     1.364015
C      0.436018     1.195917    -1.649656
H     -0.103719     0.626357    -2.418722
H      0.891079     2.087100    -2.090280
C     -0.514688     1.582127    -0.515088
H     -1.498413     1.927849    -0.859168
O      0.083198     2.573109     0.324829
P     -0.086437     4.174728    -0.202043
O     -1.561870     4.513016    -0.094986
O      0.719370     4.407537    -1.455782
O      0.740321     4.861536     1.064436
C      0.474337     4.424527     2.399704
H      1.366420     3.908004     2.775609
H     -0.376063     3.731123     2.428694
C      0.163367     5.631673     3.267187
H     -0.033483     5.282510     4.291346
O      1.309716     6.508599     3.369900
C      1.119016     7.557613     2.403000
H      1.774052     8.382575     2.701703
H      1.393275     7.200126     1.404331
C     -0.369436     7.875395     2.492741
H     -0.750087     8.375857     1.595591
H     -0.554119     8.522616     3.359044
C     -0.992906     6.484833     2.699074
H     -1.343835     6.060467     1.752868
H     -1.839668     6.515981     3.394233
