32
Energy = -1142.574883911 Hartree (EUMP2 CORRECTED)
O      0.428994     0.011043     1.548084
C      1.384530     1.060924     1.289865
H      2.358430     0.693470     1.628127
H      1.114860     1.964395     1.853185
C     -0.650819     0.155890     0.592367
H     -0.792719    -0.819247     0.110378
H     -1.569231     0.453852     1.108052
C      1.279324     1.307691    -0.205354
H      1.771463     0.494185    -0.755822
H      1.669440     2.269513    -0.544966
C     -0.235288     1.239382    -0.406166
H     -0.538721     0.996902    -1.431376
O     -0.844245     2.470340     0.001295
P     -1.220622     3.571206    -1.204288
O     -1.692306     4.832556    -0.527963
O     -1.976227     2.834846    -2.289436
O      0.330619     3.817622    -1.825072
C      0.905914     5.125060    -1.812790
H      1.915583     5.044683    -1.385244
H      0.299887     5.797324    -1.191518
C      1.016081     5.676845    -3.223537
H      1.398229     6.705747    -3.158588
O      1.982622     4.957185    -4.014135
C      1.301710     3.829711    -4.611662
H      1.793522     3.654711    -5.575355
H      1.427104     2.950173    -3.971337
C     -0.183620     4.213920    -4.734080
H     -0.820098     3.482807    -4.229514
H     -0.491760     4.290150    -5.783691
C     -0.283950     5.579098    -4.025368
H     -1.170471     5.647480    -3.386714
H     -0.315393     6.397754    -4.754489
