32
Energy = -1142.543751871 Hartree (EUMP2 CORRECTED)
O      1.565079    -0.060360     0.907017
C      2.272872     1.011045     0.260157
H      3.272962     0.636004     0.023745
H      2.349712     1.880900     0.927178
C      0.155847     0.244071     0.782412
H     -0.353188    -0.696898     0.546713
H     -0.232638     0.655492     1.720050
C      1.409343     1.339503    -0.947930
H      1.523703     0.555113    -1.708618
H      1.619905     2.319041    -1.385975
C      0.007587     1.305649    -0.327127
H     -0.781507     1.016799    -1.027761
O     -0.271851     2.552262     0.283030
P     -1.409483     3.698201    -0.219125
O     -0.773731     5.041452     0.021750
O     -2.746577     3.266659     0.335828
O     -1.533862     3.543393    -1.895257
C     -1.173700     2.620943    -2.893177
H     -1.812867     1.724844    -2.863558
H     -0.120511     2.313384    -2.812549
C     -1.356195     3.309606    -4.239185
H     -0.992518     2.634545    -5.027415
O     -2.751211     3.531083    -4.525841
C     -3.051375     4.879854    -4.115529
H     -3.977849     5.162370    -4.625031
H     -3.186727     4.918046    -3.030020
C     -1.827677     5.676180    -4.556627
H     -1.717534     6.617261    -4.007492
H     -1.900290     5.900222    -5.627804
C     -0.674130     4.696399    -4.279342
H     -0.216734     4.911516    -3.309378
H      0.098818     4.741633    -5.054900
