32
Energy = -1142.570436233 Hartree (EUMP2 CORRECTED)
O     -0.439819    -0.524838     1.053343
C     -0.059093    -0.748101    -0.331580
H     -0.920466    -1.187508    -0.853608
H      0.763163    -1.472035    -0.346244
C     -0.500943     0.897618     1.278004
H     -1.354966     1.099540     1.931925
H      0.419563     1.255879     1.759686
C      0.317648     0.612395    -0.900638
H      0.170708     0.698083    -1.979654
H      1.358212     0.866887    -0.677170
C     -0.611978     1.532236    -0.103490
H     -1.637045     1.438950    -0.493690
O     -0.287093     2.913597     0.001947
P      0.411869     3.727506    -1.297113
O      0.433563     5.177563    -0.880893
O     -0.147896     3.185955    -2.588469
O      1.978615     3.126239    -1.212488
C      2.776846     3.507323    -0.090273
H      2.992532     2.607648     0.503997
H      2.248631     4.238723     0.536235
C      4.077771     4.112964    -0.587340
H      4.701307     4.368913     0.281528
O      4.840018     3.141499    -1.342459
C      4.569173     3.390298    -2.734671
H      5.376643     2.914772    -3.301021
H      3.602793     2.954394    -3.010978
C      4.541788     4.910881    -2.838476
H      4.004117     5.264539    -3.725059
H      5.568700     5.294926    -2.876301
C      3.849586     5.317508    -1.527226
H      2.777285     5.480341    -1.669181
H      4.275997     6.234654    -1.105455
