32
Energy = -1142.571494466 Hartree (EUMP2 CORRECTED)
O      1.167272    -0.340177     0.174331
C      2.033227     0.797039    -0.005040
H      3.017509     0.405845    -0.280165
H      2.110167     1.370133     0.929051
C     -0.191340     0.121059    -0.026892
H     -0.679256    -0.598205    -0.694912
H     -0.722051     0.161593     0.930115
C      1.346523     1.621054    -1.081734
H      1.483116     1.145278    -2.062654
H      1.669090     2.664605    -1.122202
C     -0.115140     1.528874    -0.631619
H     -0.843953     1.666613    -1.439400
O     -0.355040     2.477711     0.408559
P     -1.131866     3.909762    -0.013297
O     -1.206325     4.721351     1.248210
O     -2.289916     3.571931    -0.928506
O      0.073209     4.613096    -0.968781
C     -0.057457     4.635067    -2.387397
H     -1.103529     4.777689    -2.678874
H      0.297680     3.684885    -2.824455
C      0.802338     5.769480    -2.917509
H      0.839808     5.693124    -4.013191
O      0.242238     7.061968    -2.637588
C      0.660318     7.439546    -1.304555
H      0.745203     8.531645    -1.313184
H     -0.097719     7.130472    -0.579609
C      1.998538     6.720506    -1.043520
H      1.924201     6.115899    -0.137588
H      2.825750     7.431046    -0.929494
C      2.195850     5.824451    -2.281706
H      2.570713     4.829465    -2.020004
H      2.896129     6.285096    -2.989041
