32
Energy = -1142.572033413 Hartree (EUMP2 CORRECTED)
O      0.368431    -0.187309     0.366036
C      1.417570     0.680370    -0.121412
H      2.173233     0.034184    -0.578693
H      1.861578     1.238931     0.712263
C     -0.869396     0.562883     0.345143
H     -1.600539    -0.021423    -0.229109
H     -1.231565     0.705038     1.368887
C      0.712900     1.619221    -1.084377
H      0.480064     1.097053    -2.022355
H      1.250696     2.543150    -1.308278
C     -0.572154     1.912939    -0.310916
H     -1.381880     2.265891    -0.960494
O     -0.320377     2.851243     0.736755
P     -0.318772     4.502716     0.334827
O     -0.475224     4.632029    -1.160139
O      0.777462     5.117986     1.166671
O     -1.803071     4.913573     0.995051
C     -1.972023     4.704402     2.398278
H     -1.783570     5.644904     2.931469
H     -1.273245     3.942302     2.770382
C     -3.396267     4.239806     2.645524
H     -3.525333     4.061607     3.722509
O     -4.351349     5.272143     2.305023
C     -4.836963     4.972961     0.984840
H     -5.772296     5.527840     0.859688
H     -4.103502     5.289756     0.234801
C     -5.004027     3.457420     0.995395
H     -5.039187     3.025085    -0.011016
H     -5.930320     3.194444     1.520704
C     -3.772066     3.005262     1.794706
H     -2.941765     2.761139     1.127920
H     -3.980116     2.131795     2.422935
