32
Energy = -1142.557161985 Hartree (EUMP2 CORRECTED)
O      1.737619     0.303075    -0.112676
C      1.991158     1.498710    -0.878764
H      2.801820     1.263137    -1.575261
H      2.314278     2.309070    -0.210243
C      0.357526     0.351506     0.326493
H     -0.091177    -0.618985     0.082487
H      0.314064     0.518965     1.408311
C      0.660549     1.822380    -1.536386
H      0.487864     1.132617    -2.373834
H      0.565747     2.851088    -1.894335
C     -0.323971     1.510490    -0.407525
H     -1.318644     1.252208    -0.784651
O     -0.442330     2.596681     0.525000
P     -1.463208     3.870551     0.083054
O     -1.858918     4.524212     1.383330
O     -2.408765     3.401973    -0.994290
O     -0.352387     4.875384    -0.693868
C      0.906316     5.099389    -0.076996
H      0.830030     5.931069     0.639231
H      1.203689     4.207460     0.485761
C      1.982156     5.411141    -1.155079
H      2.861202     4.789082    -0.945138
O      1.581848     5.054169    -2.482564
C      0.936007     6.221103    -3.012996
H      0.841217     6.070656    -4.092138
H     -0.058176     6.324493    -2.561441
C      1.875590     7.360085    -2.615012
H      1.374619     8.334365    -2.588107
H      2.703991     7.420284    -3.329502
C      2.383053     6.907473    -1.227689
H      1.908034     7.477129    -0.422390
H      3.466209     7.037813    -1.131791
