32
Energy = -1142.572897248 Hartree (EUMP2 CORRECTED)
O      1.992517     0.435598    -0.399395
C      1.934522     1.417346    -1.459847
H      2.577065     1.051520    -2.267413
H      2.313054     2.381834    -1.097800
C      0.707925     0.420951     0.271051
H      0.297507    -0.594704     0.188675
H      0.842685     0.683442     1.324963
C      0.462120     1.519401    -1.817311
H      0.152304     0.649836    -2.413172
H      0.193729     2.440398    -2.339562
C     -0.178150     1.445417    -0.430158
H     -1.235104     1.159073    -0.462663
O     -0.033458     2.677495     0.283288
P     -1.054977     3.950095    -0.128432
O     -1.021830     4.927927     1.020486
O     -2.304128     3.354769    -0.733509
O     -0.135170     4.588939    -1.393898
C      0.334975     5.936333    -1.312141
H     -0.222592     6.509858    -0.564449
H      0.201739     6.391794    -2.301011
C      1.813082     5.908802    -0.960861
H      2.330018     5.224882    -1.649975
O      2.364983     7.244046    -1.177818
C      3.045137     7.674124     0.013955
H      3.919565     8.256146    -0.297921
H      2.381688     8.321782     0.607035
C      3.373201     6.395750     0.772832
H      3.554711     6.568044     1.840003
H      4.263136     5.919026     0.342168
C      2.119398     5.566906     0.497008
H      1.284695     5.877189     1.135088
H      2.249432     4.490720     0.645122
