32
Energy = -1142.571559219 Hartree (EUMP2 CORRECTED)
O      1.345189     0.115300     0.399000
C      1.774302     1.171417    -0.486778
H      2.576366     0.760035    -1.108007
H      2.157079     2.019579     0.096450
C     -0.056034     0.334259     0.707170
H     -0.597414    -0.584583     0.447495
H     -0.175031     0.548370     1.773225
C      0.518593     1.563676    -1.247985
H      0.284050     0.802527    -2.004805
H      0.559860     2.539783    -1.734034
C     -0.517594     1.530229    -0.129025
H     -1.544908     1.397311    -0.484257
O     -0.411484     2.712757     0.670288
P     -1.716664     3.777824     0.627754
O     -1.193117     5.120284     1.067615
O     -2.923647     3.067473     1.189953
O     -1.989974     3.802176    -1.041475
C     -1.280779     4.785189    -1.794146
H     -0.194723     4.658287    -1.688587
H     -1.535796     5.794226    -1.439414
C     -1.674652     4.624771    -3.249706
H     -1.186012     5.414773    -3.837014
O     -1.171815     3.374303    -3.782864
C     -2.267569     2.445680    -3.784438
H     -2.004379     1.643687    -4.481612
H     -2.416095     2.037822    -2.777160
C     -3.460021     3.289977    -4.217198
H     -4.422715     2.832127    -3.963737
H     -3.421706     3.449296    -5.301665
C     -3.205798     4.600732    -3.458206
H     -3.704279     4.580738    -2.484943
H     -3.552774     5.479535    -4.012914
