32
Energy = -1142.566548120 Hartree (EUMP2 CORRECTED)
O      0.890001    -0.014193    -1.154839
C      1.370908     1.178545    -1.811899
H      1.709548     0.874821    -2.807236
H      2.201597     1.626176    -1.252617
C      0.114476     0.458752    -0.034687
H     -0.659151    -0.292812     0.155082
H      0.747430     0.566389     0.854145
C      0.167387     2.108097    -1.804496
H      0.427176     3.156695    -1.952560
H     -0.548430     1.777558    -2.568831
C     -0.452964     1.848937    -0.420393
H     -1.546363     1.817357    -0.495367
O     -0.221839     2.790621     0.632505
P      1.108299     3.795873     0.850254
O      0.613382     4.907478     1.739701
O      1.871006     3.980549    -0.437588
O      2.053915     2.757684     1.778533
C      1.589216     2.467262     3.093754
H      0.559342     2.086769     3.063172
H      1.606627     3.376536     3.713436
C      2.506296     1.408929     3.676703
H      2.202147     1.208969     4.713963
O      2.347685     0.153348     2.972179
C      3.447816     0.038536     2.053350
H      3.527075    -1.019177     1.784710
H      3.253194     0.638507     1.156586
C      4.633393     0.583717     2.840108
H      5.475660     0.870487     2.200310
H      4.978526    -0.172704     3.555586
C      4.002519     1.780614     3.566987
H      4.107359     2.689461     2.967716
H      4.449569     1.956786     4.551843
