32
Energy = -1142.561915133 Hartree (EUMP2 CORRECTED)
O      1.802486    -0.402336    -0.269108
C      2.058198     0.783066    -1.036694
H      2.738996     0.499179    -1.845529
H      2.521249     1.545976    -0.399220
C      0.622883    -0.121066     0.518216
H      0.053804    -1.056340     0.563079
H      0.912239     0.200721     1.519629
C      0.667505     1.201289    -1.494649
H      0.581839     2.238510    -1.832451
H      0.334899     0.527817    -2.295771
C     -0.170563     0.985317    -0.222901
H     -1.182455     0.637892    -0.464120
O     -0.367905     2.232652     0.445944
P      0.393807     2.867938     1.803432
O      1.752123     2.202862     1.949555
O     -0.604654     3.000326     2.919556
O      0.637363     4.406880     1.204846
C      1.682410     4.630080     0.262239
H      1.235741     5.008720    -0.667706
H      2.228695     3.700610     0.057130
C      2.659283     5.654265     0.815050
H      3.491307     5.759138     0.104128
O      2.073828     6.965716     0.920677
C      1.398386     7.038539     2.197960
H      1.483041     8.080656     2.526474
H      0.344013     6.776924     2.065821
C      2.100472     6.036896     3.134253
H      1.378673     5.321604     3.534735
H      2.589712     6.545207     3.973585
C      3.129387     5.325120     2.233739
H      3.158407     4.245260     2.410651
H      4.131402     5.745253     2.383829
