32
Energy = -1142.570477022 Hartree (EUMP2 CORRECTED)
O      1.138357     0.782232    -1.893787
C      1.295248     2.191486    -2.110063
H      1.504268     2.340725    -3.173083
H      2.148401     2.561361    -1.519173
C      0.571363     0.706933    -0.568337
H      0.161361    -0.295896    -0.438263
H      1.346213     0.899130     0.184196
C     -0.017585     2.804275    -1.622205
H     -0.744993     2.849107    -2.439655
H      0.096544     3.805749    -1.196227
C     -0.485969     1.826267    -0.526952
H     -1.471914     1.406447    -0.761651
O     -0.585392     2.526433     0.714448
P     -0.976245     1.676700     2.102761
O     -1.987341     0.602969     1.749693
O     -1.161007     2.715309     3.176423
O      0.495836     0.903185     2.386592
C      0.536419    -0.511439     2.581934
H      1.338564    -0.912612     1.946769
H     -0.422300    -0.958106     2.286646
C      0.848320    -0.857739     4.028008
H      0.791009    -1.950680     4.133455
O      2.197615    -0.507375     4.392381
C      2.181997     0.876122     4.814901
H      2.978121     0.973680     5.561560
H      2.401503     1.519667     3.956797
C      0.773708     1.158253     5.367412
H      0.320067     2.017783     4.867832
H      0.798092     1.345786     6.447469
C     -0.026301    -0.119612     5.044671
H     -1.021238     0.109229     4.649782
H     -0.141271    -0.746281     5.937386
