32
Energy = -1142.559195543 Hartree (EUMP2 CORRECTED)
O      1.629087     0.045331    -0.192942
C      1.897156     1.130813    -1.101396
H      2.639853     0.766598    -1.818569
H      2.316831     1.985077    -0.552351
C      0.290724     0.234341     0.331900
H     -0.228123    -0.726823     0.236924
H      0.339743     0.527203     1.386274
C      0.542605     1.467171    -1.702520
H      0.271657     0.711354    -2.451672
H      0.462140     2.457899    -2.157100
C     -0.378220     1.344001    -0.486186
H     -1.404838     1.099864    -0.776657
O     -0.378088     2.529646     0.317711
P     -1.305040     3.837881    -0.252264
O     -1.890288     4.479532     0.979974
O     -2.093576     3.376926    -1.453510
O     -0.077275     4.835556    -0.835440
C      1.210672     4.821997    -0.249313
H      1.279136     5.621808     0.508208
H      1.411190     3.867062     0.251767
C      2.270590     5.060594    -1.306567
H      2.152735     4.332685    -2.116687
O      2.124531     6.361089    -1.931537
C      3.087227     7.231782    -1.338266
H      3.216215     8.080858    -2.015953
H      2.731032     7.605717    -0.364365
C      4.321269     6.354965    -1.169035
H      5.059391     6.764401    -0.469589
H      4.803100     6.214526    -2.143284
C      3.685458     5.048410    -0.681011
H      3.608288     5.047675     0.414427
H      4.255289     4.159083    -0.969510
