32
Energy = -1142.566815884 Hartree (EUMP2 CORRECTED)
O      1.673649     0.478306     0.038048
C      2.068704     1.788235    -0.436654
H      2.905950     1.658864    -1.134055
H      2.396277     2.391092     0.416401
C      0.236400     0.333637    -0.101231
H      0.018008    -0.253696    -1.008451
H     -0.151513    -0.162184     0.786958
C      0.827461     2.386136    -1.094006
H      0.749219     2.078048    -2.145367
H      0.789091     3.477942    -1.034578
C     -0.299137     1.746848    -0.288371
H     -1.251552     1.728321    -0.841957
O     -0.465920     2.524463     0.892132
P     -1.156702     2.048348     2.366184
O     -1.119984     0.540037     2.487404
O     -2.387606     2.887448     2.580978
O      0.027087     2.720192     3.329116
C      1.298398     2.066582     3.366496
H      1.499570     1.518876     2.438521
H      1.310578     1.347650     4.200505
C      2.370384     3.120851     3.583932
H      3.311570     2.615004     3.839264
O      2.651502     3.876595     2.391550
C      1.669214     4.936047     2.312119
H      2.164084     5.769598     1.800855
H      0.813243     4.591312     1.724407
C      1.259531     5.261780     3.762091
H      0.176207     5.182355     3.871845
H      1.573971     6.271075     4.053399
C      1.970671     4.187179     4.609036
H      1.321091     3.781635     5.391193
H      2.875193     4.594720     5.076448
