32
Energy = -1142.573524087 Hartree (EUMP2 CORRECTED)
O      0.291842    -0.302099     0.867145
C      1.150278     0.829498     1.124208
H      2.076973     0.433425     1.550926
H      0.674212     1.510523     1.842239
C     -0.600192     0.063983    -0.213756
H     -0.547206    -0.734630    -0.963952
H     -1.624930     0.155499     0.161135
C      1.306486     1.501576    -0.229153
H      1.987035     0.915987    -0.862613
H      1.639487     2.541388    -0.182399
C     -0.123768     1.409179    -0.766940
H     -0.190404     1.468599    -1.858968
O     -0.941862     2.431966    -0.184527
P     -1.098238     3.874131    -1.010524
O     -2.167718     4.692275    -0.334732
O     -1.077544     3.574521    -2.498473
O      0.414175     4.503594    -0.596837
C      0.583891     5.915259    -0.485603
H      1.089733     6.107339     0.470045
H     -0.389720     6.424733    -0.472990
C      1.452247     6.445234    -1.615002
H      1.637252     7.515332    -1.434776
O      2.755373     5.809296    -1.578801
C      2.771935     4.829883    -2.631897
H      3.823375     4.601377    -2.835210
H      2.241331     3.924788    -2.311788
C      2.035958     5.512054    -3.776028
H      1.683002     4.807898    -4.537399
H      2.695105     6.250582    -4.250006
C      0.880600     6.186072    -3.024607
H      0.031808     5.497487    -2.976900
H      0.552605     7.117501    -3.500067
