32
Energy = -1142.571579152 Hartree (EUMP2 CORRECTED)
O      1.308400    -0.156590     0.295856
C      2.012110     0.879915    -0.421385
H      2.872169     0.403607    -0.902462
H      2.360238     1.653135     0.276285
C     -0.083365     0.236926     0.381194
H     -0.683763    -0.603792     0.011861
H     -0.346582     0.454204     1.421439
C      0.978149     1.447270    -1.378649
H      0.814499     0.750500    -2.212061
H      1.210738     2.443803    -1.761342
C     -0.258104     1.489928    -0.478558
H     -1.204605     1.502237    -1.029879
O     -0.200297     2.625383     0.395342
P     -0.943908     4.031170    -0.105857
O     -0.975118     4.977161     1.068325
O     -2.159906     3.691043    -0.943121
O      0.281742     4.527331    -1.163880
C     -0.083466     5.557227    -2.085656
H     -1.059208     5.995214    -1.839327
H     -0.147774     5.139630    -3.098957
C      0.991872     6.629172    -2.005100
H      1.944113     6.227460    -2.371328
O      0.647912     7.727191    -2.896201
C      0.096237     8.768748    -2.077271
H      0.158870     9.696016    -2.655164
H     -0.959989     8.561078    -1.846395
C      0.946141     8.737962    -0.815830
H      0.474764     9.245670     0.033305
H      1.910791     9.219436    -1.017883
C      1.112048     7.228479    -0.589314
H      0.329040     6.821030     0.060598
H      2.070403     6.977974    -0.124097
