32
Energy = -1142.562392275 Hartree (EUMP2 CORRECTED)
O      0.947314    -0.612449     0.418904
C     -0.050472    -0.665912    -0.626943
H     -0.297509    -1.722105    -0.774360
H      0.355804    -0.247763    -1.556406
C      0.785569     0.641824     1.124019
H      0.632746     0.409317     2.186337
H      1.686002     1.252978     1.003569
C     -1.195478     0.189179    -0.113665
H     -1.759985    -0.351586     0.658235
H     -1.870451     0.539685    -0.899270
C     -0.422595     1.350629     0.517368
H     -1.006458     1.911397     1.258129
O      0.067895     2.244599    -0.483079
P     -1.079324     3.284324    -1.176419
O     -1.890520     3.919812    -0.076190
O     -1.694351     2.562894    -2.360208
O      0.021552     4.404758    -1.728617
C      0.998516     3.925586    -2.657041
H      1.809712     3.413889    -2.124210
H      0.521131     3.218404    -3.347753
C      1.560647     5.114959    -3.418329
H      0.940067     5.995911    -3.186820
O      2.920512     5.381520    -3.010926
C      3.410052     6.336950    -3.954312
H      3.132229     7.351652    -3.629351
H      4.500896     6.257276    -3.959254
C      2.747610     5.993039    -5.311325
H      3.473981     5.606515    -6.033679
H      2.282842     6.881039    -5.753844
C      1.695367     4.937123    -4.929311
H      2.064398     3.924773    -5.131520
H      0.738512     5.060843    -5.447061
