32
Energy = -1142.570384253 Hartree (EUMP2 CORRECTED)
O      1.409242     0.098998     0.313537
C      1.877926     1.175068    -0.526936
H      2.811071     0.833662    -0.986591
H      2.070092     2.069602     0.079887
C     -0.033348     0.208406     0.402309
H     -0.453155    -0.767125     0.126144
H     -0.324734     0.463150     1.426447
C      0.736099     1.418379    -1.499400
H      0.700290     0.616006    -2.248760
H      0.760086     2.388545    -2.001280
C     -0.465912     1.313414    -0.561143
H     -1.399400     1.091318    -1.088296
O     -0.618967     2.510076     0.211498
P     -1.372209     3.817730    -0.516527
O     -1.954551     4.683342     0.570813
O     -2.143767     3.315275    -1.718467
O      0.039228     4.571909    -1.077998
C     -0.040466     5.997452    -1.168631
H     -0.264291     6.433727    -0.188551
H     -0.847778     6.276395    -1.865352
C      1.276442     6.553145    -1.697651
H      1.092460     7.538728    -2.142138
O      2.228558     6.791101    -0.637383
C      2.803270     5.504428    -0.341282
H      3.756206     5.695994     0.161819
H      2.137534     4.946072     0.326671
C      2.942342     4.792849    -1.698378
H      2.629228     3.749981    -1.623623
H      3.979187     4.818264    -2.053002
C      2.015878     5.592776    -2.638684
H      1.320889     4.949619    -3.185913
H      2.603290     6.173035    -3.359679
