32
Energy = -1142.565422735 Hartree (EUMP2 CORRECTED)
O      1.471909     0.174164     0.391780
C      1.731093     1.595296     0.437030
H      2.817683     1.719266     0.400068
H      1.338798     2.023590     1.367930
C      0.164147    -0.013108    -0.197181
H      0.274072    -0.727705    -1.023361
H     -0.530320    -0.411085     0.549873
C      0.985643     2.152754    -0.763354
H      1.524643     1.908860    -1.689705
H      0.800584     3.228370    -0.720731
C     -0.318255     1.356098    -0.685004
H     -0.847142     1.289693    -1.642097
O     -1.177588     1.875980     0.323245
P     -2.067158     3.287541     0.154688
O     -1.525052     4.313624     1.119628
O     -3.535108     2.928384     0.068721
O     -1.550017     3.667913    -1.414451
C     -2.339449     4.655981    -2.084770
H     -1.748787     5.576577    -2.177230
H     -3.255368     4.869776    -1.517379
C     -2.734955     4.160380    -3.464651
H     -3.412731     4.899487    -3.913823
O     -1.597065     4.099349    -4.357740
C     -1.098181     2.754217    -4.304478
H     -0.490913     2.606539    -5.203701
H     -0.476292     2.623535    -3.412345
C     -2.353387     1.885645    -4.251444
H     -2.168313     0.904853    -3.798782
H     -2.728935     1.725453    -5.269176
C     -3.339539     2.740236    -3.431869
H     -3.427992     2.397580    -2.396662
H     -4.340725     2.730179    -3.876609
