32
Energy = -1142.571474473 Hartree (EUMP2 CORRECTED)
O      1.136265     0.253187     0.644134
C      1.775347     1.203703    -0.235677
H      2.567822     0.662344    -0.761677
H      2.212762     2.024674     0.348158
C     -0.212848     0.725147     0.878088
H     -0.889811    -0.120793     0.706636
H     -0.307965     1.074954     1.911560
C      0.648742     1.708187    -1.118567
H      0.372080     0.935135    -1.848641
H      0.842043     2.647334    -1.640853
C     -0.473170     1.882275    -0.094787
H     -1.473999     1.829048    -0.536029
O     -0.313238     3.099418     0.646197
P     -0.861008     4.534287    -0.050159
O     -0.923467     4.349559    -1.553076
O     -0.139343     5.639664     0.666779
O     -2.439462     4.526500     0.542385
C     -3.530023     4.196273    -0.311264
H     -3.173409     3.735991    -1.238815
H     -4.079266     5.116818    -0.573075
C     -4.462787     3.258026     0.433840
H     -5.337937     3.050666    -0.199398
O     -3.824217     1.978430     0.657843
C     -3.369990     1.963692     2.023854
H     -3.216509     0.914125     2.294894
H     -2.428757     2.518883     2.110982
C     -4.498416     2.647850     2.784511
H     -4.192515     3.003000     3.775083
H     -5.336858     1.950896     2.905300
C     -4.866002     3.790614     1.828046
H     -4.278015     4.683392     2.060173
H     -5.929656     4.051270     1.870708
