32
Energy = -1142.572093763 Hartree (EUMP2 CORRECTED)
O      0.347619    -0.413102     0.201135
C      1.263786     0.269008    -0.688341
H      1.875245    -0.501759    -1.168451
H      1.907350     0.944600    -0.111323
C     -0.886366     0.337625     0.233790
H     -1.693109    -0.316389    -0.126546
H     -1.095799     0.652125     1.261092
C      0.373905     1.049815    -1.637217
H     -0.081008     0.372934    -2.374353
H      0.861525     1.881890    -2.148708
C     -0.705101     1.553000    -0.674713
H     -1.634339     1.845626    -1.182237
O     -0.230199     2.610845     0.157798
P      0.098915     4.144156    -0.469595
O     -0.917790     5.096836     0.120782
O      0.403055     4.047087    -1.945258
O      1.558797     4.374532     0.301340
C      1.555805     4.717729     1.690573
H      2.123774     3.949214     2.231255
H      0.528715     4.757444     2.075673
C      2.214037     6.072480     1.886473
H      2.144023     6.339743     2.950492
O      3.623682     6.041795     1.587963
C      3.773779     6.272908     0.168622
H      4.717184     6.817578     0.047648
H      3.834144     5.311486    -0.351147
C      2.538060     7.070264    -0.290122
H      2.020171     6.541041    -1.093163
H      2.814192     8.067391    -0.653072
C      1.649468     7.156902     0.966287
H      0.592358     6.985685     0.740087
H      1.764043     8.132671     1.453946
