32
Energy = -1142.552539949 Hartree (EUMP2 CORRECTED)
O      1.085748    -0.151758    -0.030764
C      1.833567     1.081624    -0.051253
H      2.873368     0.817176    -0.268572
H      1.774792     1.579577     0.925917
C     -0.293244     0.181330    -0.322623
H     -0.639531    -0.522771    -1.088800
H     -0.905011     0.081004     0.580207
C      1.149135     1.919247    -1.117808
H      1.410581     1.532969    -2.114228
H      1.366168     2.989258    -1.056623
C     -0.324623     1.637422    -0.805283
H     -0.999958     1.769067    -1.659933
O     -0.755020     2.455256     0.282055
P     -1.578101     3.881255    -0.074075
O     -1.891170     4.511698     1.250838
O     -2.580573     3.580454    -1.172526
O     -0.323730     4.767664    -0.783514
C     -0.342307     4.916235    -2.193068
H     -0.579411     3.958517    -2.674138
H     -1.126709     5.621858    -2.500675
C      1.020596     5.417217    -2.707550
H      0.981088     6.502420    -2.902194
O      2.057520     5.171512    -1.733846
C      3.304816     4.922553    -2.405019
H      4.040374     5.669533    -2.080389
H      3.658044     3.929809    -2.095367
C      3.019075     4.979304    -3.909703
H      3.626718     4.268331    -4.480534
H      3.209433     5.983985    -4.306048
C      1.524790     4.671792    -3.941778
H      1.346232     3.599389    -3.801479
H      1.029815     4.988115    -4.867968
