32
Energy = -1142.572997641 Hartree (EUMP2 CORRECTED)
O      0.851408    -0.220279     0.794250
C      1.481394     1.053152     1.047544
H      2.498045     0.840720     1.392564
H      0.932924     1.598776     1.827014
C     -0.175707    -0.007937    -0.205241
H     -0.020758    -0.753105    -0.995152
H     -1.166706    -0.138894     0.241023
C      1.398350     1.786606    -0.280504
H      2.134843     1.372080    -0.982849
H      1.516854     2.870757    -0.215396
C     -0.020445     1.425404    -0.722277
H     -0.185974     1.492003    -1.804179
O     -0.963608     2.253659    -0.031916
P     -1.636539     3.521261    -0.881401
O     -2.454350     4.345202     0.077137
O     -2.166253     3.004640    -2.207137
O     -0.174305     4.306656    -1.210229
C     -0.248259     5.658902    -1.661368
H      0.277227     6.289960    -0.932432
H     -1.290171     6.004345    -1.724410
C      0.418978     5.789336    -3.019479
H      0.402672     6.849450    -3.314935
O      1.821710     5.429808    -2.926082
C      1.962765     4.121132    -3.501572
H      3.019402     4.000933    -3.762873
H      1.667743     3.357581    -2.771533
C      1.012331     4.138193    -4.690582
H      0.760189     3.135036    -5.053025
H      1.464978     4.705910    -5.513517
C     -0.196578     4.873597    -4.097669
H     -0.893152     4.163921    -3.637466
H     -0.743817     5.454784    -4.848758
