32
Energy = -1142.563946861 Hartree (EUMP2 CORRECTED)
O      1.610962     0.368028    -0.258480
C      1.987886     1.661843    -0.789556
H      2.689327     1.501887    -1.618594
H      2.489417     2.229648     0.000162
C      0.165694     0.261819    -0.239209
H     -0.171479    -0.282564    -1.137125
H     -0.127958    -0.260403     0.670070
C      0.688772     2.333227    -1.232338
H      0.454488     2.087808    -2.277015
H      0.701329     3.420801    -1.115167
C     -0.350167     1.692009    -0.315586
H     -1.354999     1.705380    -0.767183
O     -0.407309     2.442842     0.892607
P     -0.648799     1.935708     2.490344
O     -0.671682     0.423349     2.557428
O     -1.713168     2.835134     3.057099
O      0.788974     2.493595     3.128761
C      1.964303     1.700263     2.951028
H      1.973235     1.195116     1.978776
H      2.008954     0.929610     3.736461
C      3.163787     2.622931     3.071760
H      4.074216     2.010594     3.124934
O      3.331461     3.462374     1.912806
C      2.478535     4.617518     2.086930
H      2.980719     5.444989     1.572965
H      1.506177     4.424499     1.623006
C      2.336338     4.833473     3.606235
H      1.281083     4.846005     3.885666
H      2.800783     5.774347     3.924737
C      3.047280     3.616953     4.231981
H      2.484950     3.199276     5.073092
H      4.052050     3.887929     4.578195
