32
Energy = -1142.569629590 Hartree (EUMP2 CORRECTED)
O      1.220576    -0.314742     0.179978
C      1.948098     0.693512    -0.552157
H      2.751220     0.177906    -1.087945
H      2.378796     1.428486     0.141026
C     -0.133987     0.167274     0.358916
H     -0.809836    -0.627335     0.019573
H     -0.316337     0.385796     1.416118
C      0.901613     1.343959    -1.440681
H      0.650859     0.677436    -2.277192
H      1.176089     2.333117    -1.814999
C     -0.279700     1.443760    -0.472496
H     -1.252693     1.518553    -0.970855
O     -0.108819     2.558414     0.412128
P     -0.792069     4.016080    -0.036025
O     -0.654446     4.938353     1.147437
O     -2.087567     3.764563    -0.779055
O      0.380706     4.435838    -1.180397
C     -0.013339     5.236651    -2.296440
H     -1.030164     5.626488    -2.176526
H     -0.006656     4.591305    -3.189669
C      0.964109     6.401891    -2.503959
H      1.097158     6.579870    -3.578374
O      0.437987     7.639143    -1.982562
C      0.656659     7.586985    -0.551420
H      0.708541     8.626754    -0.213514
H     -0.179533     7.080970    -0.057424
C      1.960660     6.792963    -0.344286
H      1.786254     5.982255     0.366505
H      2.769996     7.430532     0.030508
C      2.286272     6.244536    -1.746592
H      2.633970     5.208020    -1.717758
H      3.044775     6.862875    -2.242195
