32
Energy = -1142.568902941 Hartree (EUMP2 CORRECTED)
O      1.426801    -0.173538     0.125642
C      0.629395    -0.122881    -1.080075
H      0.625974    -1.133748    -1.500171
H      1.079022     0.574084    -1.798555
C      0.902700     0.810942     1.048819
H      0.632581     0.288899     1.976544
H      1.667633     1.566024     1.257068
C     -0.729290     0.381245    -0.626561
H     -1.284020    -0.419625    -0.118862
H     -1.333020     0.807081    -1.432590
C     -0.312240     1.452487     0.384644
H     -1.104314     1.710377     1.098939
O      0.141689     2.635264    -0.276318
P     -1.069183     3.621911    -0.938493
O     -2.142178     3.839952     0.097371
O     -1.352342     3.111057    -2.339035
O     -0.144665     5.000297    -1.029218
C      1.043470     4.964581    -1.829203
H      1.397669     3.939035    -1.982504
H      1.809048     5.520819    -1.276362
C      0.805412     5.665289    -3.158986
H      0.142805     6.525488    -2.981377
O      2.097962     6.165367    -3.622542
C      2.196353     5.998595    -5.049409
H      2.550416     6.942193    -5.481816
H      2.938250     5.215754    -5.263844
C      0.805359     5.584350    -5.522609
H      0.833255     4.991547    -6.444240
H      0.181684     6.468774    -5.704081
C      0.294115     4.810220    -4.309134
H      0.753296     3.815590    -4.258332
H     -0.787109     4.664631    -4.264552
