32
Energy = -1142.572510382 Hartree (EUMP2 CORRECTED)
O      1.714818     0.185985    -0.087448
C      1.896885     1.169132    -1.132175
H      2.604070     0.740992    -1.849845
H      2.311238     2.094001    -0.710792
C      0.370052     0.330711     0.431440
H     -0.134653    -0.638754     0.325039
H      0.411461     0.614912     1.487685
C      0.501582     1.410247    -1.680742
H      0.188630     0.566779    -2.311391
H      0.394646     2.347427    -2.231446
C     -0.316475     1.419598    -0.388830
H     -1.383456     1.234710    -0.554011
O     -0.144797     2.649400     0.326339
P     -1.007585     3.985270    -0.190811
O     -1.015565     4.986452     0.940514
O     -2.245479     3.510461    -0.918133
O      0.129761     4.506923    -1.330065
C      0.211960     5.907921    -1.597576
H     -0.461082     6.476883    -0.945363
H     -0.060478     6.092312    -2.644729
C      1.645949     6.341607    -1.332474
H      2.317557     5.865734    -2.057885
O      1.762951     7.775778    -1.554130
C      1.818536     8.398246    -0.261201
H      2.265670     9.387285    -0.402579
H      0.806034     8.515904     0.154386
C      2.640197     7.433631     0.580105
H      2.526861     7.598520     1.657656
H      3.701107     7.535802     0.319749
C      2.077460     6.081554     0.123699
H      1.204754     5.791538     0.719614
H      2.809673     5.271157     0.193371
