32
Energy = -1142.563288075 Hartree (EUMP2 CORRECTED)
O      1.409994     0.097530     0.242636
C      1.922352     1.277893    -0.407071
H      2.809656     0.970216    -0.968781
H      2.199303     2.035497     0.338122
C      0.005960     0.333698     0.501580
H     -0.535786    -0.564863     0.182991
H     -0.156954     0.511815     1.570212
C      0.764774     1.769768    -1.259926
H      0.650591     1.128475    -2.145074
H      0.858311     2.819169    -1.555434
C     -0.411598     1.579242    -0.292924
H     -1.375920     1.427544    -0.786665
O     -0.476663     2.664816     0.624445
P     -1.212048     4.153689     0.328402
O     -0.214455     4.989034    -0.450708
O     -1.883258     4.557320     1.609739
O     -2.457427     3.782249    -0.750255
C     -2.204942     3.495540    -2.121179
H     -1.277321     2.940398    -2.276301
H     -2.119941     4.439056    -2.685136
C     -3.380733     2.691396    -2.645978
H     -3.242169     2.522095    -3.723338
O     -3.406801     1.375122    -2.041947
C     -4.392369     1.408100    -0.993399
H     -4.662157     0.368937    -0.780751
H     -3.971599     1.883093    -0.099106
C     -5.521053     2.242503    -1.585683
H     -6.200586     2.641597    -0.824654
H     -6.100352     1.630649    -2.287741
C     -4.745160     3.342416    -2.325529
H     -4.592559     4.205737    -1.671884
H     -5.256392     3.676119    -3.235425
