32
Energy = -1142.563284495 Hartree (EUMP2 CORRECTED)
O      1.714714     0.325492     0.121923
C      1.977012     1.476759    -0.712716
H      2.835634     1.221904    -1.342107
H      2.220524     2.346228    -0.088634
C      0.296988     0.308737     0.419640
H     -0.094508    -0.669078     0.109840
H      0.142837     0.447804     1.494536
C      0.679810     1.705728    -1.467898
H      0.565136     0.953221    -2.260110
H      0.575303     2.708849    -1.887820
C     -0.345882     1.452880    -0.362064
H     -1.342676     1.210738    -0.745963
O     -0.433663     2.573852     0.527773
P     -1.412188     3.850672     0.079003
O     -1.679475     4.689485     1.303855
O     -2.495679     3.340545    -0.847841
O     -0.238363     4.647930    -0.849118
C     -0.546536     5.998399    -1.174864
H     -1.354258     6.055347    -1.920691
H     -0.868123     6.518961    -0.261224
C      0.699782     6.664782    -1.731515
H      1.571207     6.147057    -1.312481
O      0.804515     6.528659    -3.176853
C      0.740719     7.832457    -3.762112
H      1.278408     7.790303    -4.714454
H     -0.306067     8.117537    -3.959134
C      1.361527     8.754354    -2.719913
H      1.121505     9.812193    -2.878383
H      2.451654     8.637238    -2.724077
C      0.755308     8.173291    -1.442443
H     -0.259921     8.567209    -1.298921
H      1.326677     8.388681    -0.534314
