32
Energy = -1142.567418836 Hartree (EUMP2 CORRECTED)
O      1.547424     0.535556     0.823209
C      2.132799     1.720370     0.242006
H      3.204311     1.523827     0.134348
H      1.982433     2.578347     0.910305
C      0.167921     0.464048     0.383600
H      0.017829    -0.526583    -0.064262
H     -0.502024     0.591893     1.239579
C      1.383287     1.910117    -1.065401
H      1.726411     1.173154    -1.804587
H      1.437507     2.908516    -1.504133
C     -0.046196     1.590494    -0.629619
H     -0.683944     1.285445    -1.467139
O     -0.625902     2.690753     0.074230
P     -1.410966     3.871029    -0.845761
O     -2.882544     3.814403    -0.532788
O     -0.844973     3.824245    -2.253707
O     -0.724263     5.173772    -0.042150
C     -0.215377     6.265488    -0.803749
H     -0.990059     7.038361    -0.907123
H      0.086718     5.923959    -1.803656
C      0.980945     6.844832    -0.070414
H      1.402403     7.659439    -0.676225
O      0.587456     7.455358     1.181142
C      0.840414     6.487512     2.214426
H      0.866117     7.036151     3.161284
H      0.040553     5.738471     2.230898
C      2.173804     5.867424     1.811823
H      2.352024     4.894874     2.284296
H      2.991783     6.544913     2.085855
C      2.029738     5.767747     0.285322
H      1.646115     4.784406     0.003647
H      2.978199     5.937579    -0.236567
