32
Energy = -1142.565057112 Hartree (EUMP2 CORRECTED)
O      2.140941     0.170361     0.192378
C      2.589265     1.525090     0.360881
H      3.666822     1.536503     0.166958
H      2.394595     1.868329     1.385981
C      0.740242     0.209386    -0.206073
H      0.659662    -0.331141    -1.158647
H      0.124995    -0.260070     0.561410
C      1.758322     2.317462    -0.635799
H      2.113811     2.125916    -1.657245
H      1.728256     3.394266    -0.446343
C      0.384336     1.685854    -0.421391
H     -0.274383     1.793961    -1.296315
O     -0.218207     2.393362     0.664678
P     -1.213172     1.841672     1.900989
O     -1.062118     2.879446     2.987145
O     -1.092749     0.353651     2.111338
O     -2.702702     2.058236     1.158084
C     -3.191902     3.393481     1.009320
H     -3.355798     3.582100    -0.060603
H     -2.466903     4.117584     1.403562
C     -4.506036     3.546249     1.755691
H     -4.830141     4.593789     1.675837
O     -5.563251     2.768612     1.159413
C     -5.501872     1.439883     1.726867
H     -6.536981     1.082605     1.775968
H     -4.918634     0.790251     1.066674
C     -4.828719     1.569810     3.106313
H     -3.941314     0.935132     3.157513
H     -5.509911     1.281504     3.915748
C     -4.438887     3.057497     3.203960
H     -3.441692     3.198010     3.632594
H     -5.173915     3.611271     3.800877
