32
Energy = -1142.575464961 Hartree (EUMP2 CORRECTED)
O      0.949111    -0.114626     0.817040
C      1.771822     0.920205     0.239303
H      2.729922     0.458505    -0.018489
H      1.936409     1.724535     0.969384
C     -0.435106     0.244809     0.581381
H     -0.924883    -0.628061     0.132262
H     -0.921609     0.498679     1.528817
C      0.967161     1.424558    -0.946332
H      1.013385     0.693451    -1.765428
H      1.270545     2.406699    -1.315333
C     -0.443006     1.458222    -0.352028
H     -1.238994     1.408731    -1.103429
O     -0.620870     2.628977     0.454585
P     -1.343439     3.967252    -0.270224
O     -1.557836     4.965736     0.837509
O     -2.382127     3.486719    -1.253484
O     -0.058470     4.495797    -1.226057
C      1.014267     5.161676    -0.564952
H      1.590310     4.458014     0.052894
H      0.616116     5.951128     0.089049
C      1.920876     5.758151    -1.626695
H      2.668172     6.400604    -1.142167
O      2.680029     4.702270    -2.279572
C      2.020083     4.416108    -3.523618
H      2.743904     3.888069    -4.152631
H      1.139578     3.785203    -3.349328
C      1.613457     5.787957    -4.042470
H      0.827748     5.742111    -4.804837
H      2.488311     6.293405    -4.469147
C      1.149022     6.481142    -2.754051
H      0.075666     6.337758    -2.606485
H      1.361365     7.556243    -2.761009
