32
Energy = -1142.562049882 Hartree (EUMP2 CORRECTED)
O      1.689376     0.182891    -0.009088
C      2.090406     1.394315    -0.684831
H      2.953014     1.137998    -1.308106
H      2.378705     2.158384     0.049256
C      0.270070     0.283087     0.266221
H     -0.204986    -0.622035    -0.132675
H      0.103894     0.346152     1.346449
C      0.853915     1.827677    -1.453021
H      0.713435     1.185511    -2.333230
H      0.846353     2.878671    -1.750808
C     -0.240657     1.550450    -0.420712
H     -1.237018     1.427866    -0.859336
O     -0.277146     2.591603     0.564018
P     -1.322244     3.869045     0.309917
O     -1.383303     4.663696     1.587736
O     -2.543426     3.384833    -0.446056
O     -0.339367     4.687105    -0.804318
C     -1.011795     5.704557    -1.548313
H     -1.651480     5.254762    -2.317634
H     -1.643140     6.307680    -0.881174
C      0.054513     6.572264    -2.204830
H      1.038894     6.117655    -2.006701
O     -0.165347     6.620948    -3.634157
C      0.699445     7.650917    -4.124637
H      1.675448     7.216847    -4.389931
H      0.238275     8.052994    -5.031573
C      0.846412     8.689680    -2.984899
H      0.450403     9.670990    -3.266535
H      1.900207     8.823702    -2.716818
C      0.060001     8.050945    -1.830686
H     -0.975951     8.408542    -1.815876
H      0.499743     8.231156    -0.844090
