32
Energy = -1142.567434930 Hartree (EUMP2 CORRECTED)
O      1.192827    -0.411310    -0.018492
C      1.725039     0.468844    -1.031852
H      2.285684    -0.157989    -1.732388
H      2.398629     1.206429    -0.575819
C     -0.017317     0.194350     0.498458
H     -0.814060    -0.557095     0.431837
H      0.130157     0.489294     1.542442
C      0.503058     1.150611    -1.622740
H     -0.037630     0.453663    -2.277479
H      0.715563     2.080079    -2.156245
C     -0.315302     1.424210    -0.359757
H     -1.384234     1.566371    -0.552098
O      0.200311     2.568472     0.335287
P     -0.431351     4.063213    -0.045402
O      0.032011     5.033474     1.013927
O     -1.876429     3.917505    -0.470935
O      0.507086     4.301720    -1.432874
C      0.290672     5.529780    -2.131791
H     -0.659694     5.988671    -1.831475
H      0.209584     5.272858    -3.195668
C      1.419105     6.578926    -1.939198
H      1.954902     6.703149    -2.888027
O      0.844726     7.878938    -1.674990
C      0.734969     7.955130    -0.237415
H      0.565412     9.008378     0.006667
H     -0.102738     7.344602     0.119423
C      2.053554     7.384505     0.272803
H      1.944346     6.955098     1.272423
H      2.820931     8.168286     0.290182
C      2.391000     6.301630    -0.773876
H      2.233541     5.300511    -0.371846
H      3.428477     6.385086    -1.117693
