32
Energy = -1142.568912016 Hartree (EUMP2 CORRECTED)
O      1.716663     0.080198    -0.465856
C      2.207869     1.374273    -0.893522
H      3.083537     1.189938    -1.524139
H      2.495964     1.972257    -0.021047
C      0.280865     0.159086    -0.360773
H     -0.155401    -0.568522    -1.061476
H     -0.024023    -0.085049     0.661800
C      1.033604     2.000852    -1.623711
H      0.903178     1.520820    -2.604138
H      1.093153     3.082757    -1.751343
C     -0.131636     1.589337    -0.717994
H     -1.103824     1.638163    -1.228664
O     -0.196421     2.310903     0.513377
P      0.106940     3.963981     0.668251
O     -0.120037     4.614154    -0.686760
O      1.345361     4.167628     1.496474
O     -1.195974     4.318525     1.644177
C     -2.500278     4.251003     1.065520
H     -3.077690     3.491349     1.609163
H     -2.441992     3.976080     0.003604
C     -3.188246     5.600361     1.184791
H     -4.156198     5.541471     0.666932
O     -3.501866     5.933567     2.550792
C     -2.333972     6.567519     3.121274
H     -2.708995     7.293401     3.851609
H     -1.723815     5.814163     3.629252
C     -1.558985     7.209289     1.954828
H     -0.531120     6.840473     1.932505
H     -1.534254     8.302069     2.040766
C     -2.323218     6.762862     0.692768
H     -1.648399     6.453277    -0.111486
H     -2.977623     7.566176     0.332923
