32
Energy = -1142.570716903 Hartree (EUMP2 CORRECTED)
O      0.096485    -0.278780     1.120272
C      1.171110     0.667195     0.925655
H      2.093695     0.166073     1.235488
H      1.007368     1.556835     1.547587
C     -0.934917     0.014739     0.146137
H     -1.128470    -0.906885    -0.418009
H     -1.847331     0.336147     0.658569
C      1.104508     1.024157    -0.548983
H      1.503019     0.200897    -1.157557
H      1.610599     1.957573    -0.806454
C     -0.408242     1.132321    -0.752246
H     -0.708913     1.025524    -1.800035
O     -0.916965     2.366303    -0.231538
P     -0.752123     3.738418    -1.179880
O     -1.697668     4.779337    -0.636760
O     -0.679196     3.299908    -2.626205
O      0.820745     4.168403    -0.742577
C      1.074323     5.436177    -0.136917
H      1.833744     5.287218     0.640784
H      0.149203     5.801974     0.323820
C      1.604480     6.476379    -1.138350
H      1.217476     7.470664    -0.889907
O      3.049764     6.592958    -1.023509
C      3.566716     5.433959    -1.705195
H      4.594028     5.674623    -1.996561
H      3.582448     4.577503    -1.016218
C      2.615272     5.166414    -2.886918
H      2.280999     4.126430    -2.904164
H      3.091011     5.400424    -3.846148
C      1.421925     6.097225    -2.608396
H      0.467305     5.611084    -2.821277
H      1.495353     7.013654    -3.206240
