32
Energy = -1142.567428432 Hartree (EUMP2 CORRECTED)
O      1.366432     0.029814     0.324962
C      1.866274     1.091104    -0.515621
H      2.781540     0.717425    -0.986003
H      2.097850     1.975011     0.093100
C     -0.069213     0.198111     0.434723
H     -0.531639    -0.760231     0.166909
H     -0.335070     0.466073     1.462459
C      0.724204     1.380750    -1.475161
H      0.650672     0.582227    -2.225877
H      0.779993     2.350545    -1.975604
C     -0.471225     1.319095    -0.524045
H     -1.417702     1.131148    -1.041304
O     -0.573376     2.520651     0.248037
P     -1.319313     3.846307    -0.463194
O     -1.825062     4.729150     0.648605
O     -2.152283     3.347186    -1.622951
O      0.070910     4.571682    -1.108068
C      0.180581     5.985293    -0.917079
H      0.173828     6.237011     0.149251
H     -0.683017     6.482591    -1.383227
C      1.471633     6.505530    -1.560674
H      1.295821     7.496484    -1.993348
O      2.499602     6.711724    -0.560020
C      2.986734     5.389051    -0.273055
H      3.954316     5.507956     0.223355
H      2.290527     4.873955     0.401717
C      3.054105     4.675873    -1.634003
H      2.697458     3.647318    -1.556028
H      4.079883     4.658959    -2.019458
C      2.135926     5.525873    -2.536717
H      1.398845     4.922853    -3.072906
H      2.726917     6.096251    -3.262666
