32
Energy = -1142.572714811 Hartree (EUMP2 CORRECTED)
O      0.299844    -0.278311     0.170784
C      1.350636     0.647864     0.531439
H      2.289116     0.085004     0.509996
H      1.175096     1.037083     1.542216
C     -0.743463     0.469307    -0.499328
H     -0.894001     0.018364    -1.489303
H     -1.670280     0.405630     0.079514
C      1.251078     1.759135    -0.499296
H      1.666995     1.427145    -1.460331
H      1.718999     2.702598    -0.209237
C     -0.264784     1.915710    -0.606467
H     -0.578505     2.407582    -1.533018
O     -0.770260     2.620795     0.531961
P     -0.762311     4.303233     0.484971
O     -0.012309     4.729438    -0.755901
O     -0.447871     4.792007     1.880377
O     -2.412526     4.490647     0.226454
C     -3.127104     5.471184     0.983368
H     -3.649687     6.125196     0.272424
H     -2.433265     6.065819     1.590918
C     -4.149317     4.822937     1.901451
H     -4.612198     5.618661     2.502680
O     -5.234911     4.214347     1.173333
C     -4.828145     2.869554     0.838804
H     -5.744789     2.269108     0.820623
H     -4.368687     2.866497    -0.155583
C     -3.818938     2.427086     1.914552
H     -2.884683     2.099022     1.456106
H     -4.218235     1.609744     2.526861
C     -3.577976     3.693096     2.760698
H     -2.517516     3.850746     2.980910
H     -4.137951     3.642441     3.702307
