32
Energy = -1142.565976072 Hartree (EUMP2 CORRECTED)
O      0.840103    -0.213210     0.373981
C      1.907807     0.608045    -0.140192
H      2.748106    -0.059415    -0.357223
H      2.211147     1.347445     0.613648
C     -0.419086     0.417197     0.022469
H     -1.016750    -0.324004    -0.523775
H     -0.945500     0.726207     0.930466
C      1.309886     1.293670    -1.358566
H      1.238317     0.579183    -2.190227
H      1.850310     2.184467    -1.691526
C     -0.086544     1.635716    -0.841534
H     -0.831650     1.805555    -1.625638
O      0.011396     2.794192    -0.008148
P     -1.117697     4.037492    -0.168514
O     -1.620596     4.370765     1.211027
O     -2.009111     3.724734    -1.352552
O     -0.095220     5.272706    -0.679231
C      1.321328     5.248130    -0.586860
H      1.689445     4.258680    -0.299107
H      1.629843     5.977426     0.181384
C      1.932440     5.649713    -1.925488
H      2.954230     6.015609    -1.757906
O      2.075634     4.513935    -2.807228
C      0.802408     4.324218    -3.469882
H      1.031231     3.894245    -4.451041
H      0.181679     3.626568    -2.900343
C      0.125906     5.704357    -3.536307
H     -0.861083     5.649144    -3.072541
H      0.018699     6.053638    -4.570090
C      1.065024     6.620829    -2.732019
H      0.513979     7.312369    -2.087391
H      1.712799     7.199807    -3.401766
