32
Energy = -1142.571026706 Hartree (EUMP2 CORRECTED)
O      1.416010     0.319436     1.225487
C      2.043175     1.090377     0.171944
H      2.980237     0.582885    -0.078779
H      2.254343     2.107809     0.521110
C     -0.015878     0.425606     1.065574
H     -0.418017    -0.588463     0.930865
H     -0.453386     0.881490     1.959572
C      1.021275     1.115931    -0.949856
H      0.991146     0.144855    -1.463468
H      1.191240     1.921515    -1.666429
C     -0.277145     1.297655    -0.161636
H     -1.163161     0.984687    -0.727558
O     -0.481201     2.632234     0.321604
P     -0.431482     3.945866    -0.705033
O      0.956463     4.154512    -1.275873
O     -1.209824     5.052409    -0.035666
O     -1.376149     3.226641    -1.905666
C     -1.388549     3.841936    -3.193611
H     -1.002211     3.118624    -3.924461
H     -0.744029     4.731966    -3.217453
C     -2.813791     4.217803    -3.559997
H     -2.812562     4.656726    -4.568984
O     -3.636385     3.027448    -3.651884
C     -4.402466     2.952080    -2.436973
H     -5.250411     2.289336    -2.639073
H     -3.784198     2.541270    -1.629679
C     -4.783918     4.398806    -2.154183
H     -5.081933     4.566368    -1.113308
H     -5.611955     4.694456    -2.810766
C     -3.488246     5.137389    -2.519340
H     -2.849486     5.248406    -1.636608
H     -3.679746     6.133720    -2.933994
