32
Energy = -1142.564643420 Hartree (EUMP2 CORRECTED)
O      1.026592    -0.369911     0.670859
C      1.901770     0.597924     0.061352
H      2.808159     0.062730    -0.237095
H      2.156510     1.390240     0.778043
C     -0.317331     0.159038     0.576136
H     -0.962148    -0.660548     0.238757
H     -0.653354     0.521363     1.553418
C      1.083326     1.160762    -1.089126
H      1.030894     0.424180    -1.902867
H      1.449605     2.117852    -1.471386
C     -0.282772     1.332955    -0.415820
H     -1.134966     1.290579    -1.104496
O     -0.296540     2.538974     0.332833
P     -0.959327     3.960411    -0.290295
O     -0.301744     5.091570     0.445758
O     -2.449137     3.723519    -0.421845
O     -0.355125     4.035013    -1.866353
C     -0.843490     3.210659    -2.919456
H     -1.889030     2.930773    -2.735489
H     -0.225896     2.305002    -3.015752
C     -0.745545     3.991479    -4.222891
H     -0.874716     3.290339    -5.059176
O     -1.789960     4.963964    -4.371796
C     -1.376899     6.146353    -3.649003
H     -1.839537     6.993987    -4.165581
H     -1.748451     6.094654    -2.621478
C      0.164333     6.164930    -3.688256
H      0.563817     6.236982    -2.674665
H      0.542533     7.005800    -4.281485
C      0.544044     4.813859    -4.327871
H      1.383285     4.334928    -3.813239
H      0.804268     4.940882    -5.385637
