32
Energy = -1142.572909224 Hartree (EUMP2 CORRECTED)
O      1.070098    -0.186963     0.079632
C      1.860053     0.969736    -0.279819
H      2.744936     0.595516    -0.803800
H      2.166930     1.510323     0.624825
C     -0.313274     0.231461     0.151759
H     -0.896486    -0.447845    -0.483730
H     -0.666608     0.168057     1.186790
C      0.927965     1.818055    -1.126245
H      0.818179     1.374654    -2.125552
H      1.202238     2.872093    -1.216388
C     -0.376263     1.679191    -0.340538
H     -1.266465     1.878532    -0.950612
O     -0.364614     2.527803     0.811892
P     -0.921507     4.111464     0.600533
O     -0.259276     4.718139    -0.612108
O     -0.952335     4.701983     1.984244
O     -2.489719     3.754795     0.092574
C     -3.310396     3.015889     0.995572
H     -3.407665     3.553217     1.947072
H     -2.866028     2.026539     1.197691
C     -4.673347     2.833745     0.352169
H     -5.285978     2.199843     1.008158
O     -5.379049     4.089922     0.254025
C     -5.149220     4.592317    -1.073624
H     -5.916121     5.350232    -1.260984
H     -4.150098     5.036911    -1.138017
C     -5.266136     3.352141    -1.953743
H     -4.785149     3.476510    -2.930341
H     -6.324310     3.112732    -2.113182
C     -4.586624     2.276905    -1.089448
H     -3.538520     2.160704    -1.377349
H     -5.081129     1.302860    -1.176118
