32
Energy = -1142.567245266 Hartree (EUMP2 CORRECTED)
O      1.658872    -0.267533    -0.936802
C      2.298423     0.990833    -1.237276
H      3.066604     0.786428    -1.988550
H      2.762992     1.407547    -0.333293
C      0.457379     0.093489    -0.228743
H     -0.273523    -0.700299    -0.413964
H      0.657182     0.180357     0.846569
C      1.151384     1.865679    -1.720324
H      1.366231     2.935663    -1.697577
H      0.866018     1.550632    -2.732332
C      0.017724     1.485452    -0.752575
H     -0.941039     1.426353    -1.280988
O     -0.249959     2.355703     0.352032
P      0.880987     3.359488     1.096308
O      1.548128     4.219997     0.036674
O      1.661144     2.583427     2.126021
O     -0.239263     4.282094     1.902772
C     -1.028280     5.203269     1.145728
H     -2.083860     4.928189     1.269577
H     -0.760477     5.159615     0.081992
C     -0.802690     6.615732     1.656858
H     -1.363421     7.308491     1.013282
O     -1.332599     6.807727     2.983021
C     -0.313076     6.394850     3.921768
H     -0.433039     7.036542     4.802050
H     -0.479214     5.349807     4.201602
C      1.044151     6.566603     3.213413
H      1.594289     5.622998     3.210931
H      1.661716     7.327266     3.705503
C      0.677317     6.985733     1.776142
H      1.285624     6.470288     1.026296
H      0.784292     8.070141     1.650954
