32
Energy = -1142.566520022 Hartree (EUMP2 CORRECTED)
O      1.113183    -0.369529     0.533219
C      1.873862     0.701426    -0.059571
H      2.809211     0.263533    -0.421085
H      2.090910     1.475927     0.688222
C     -0.278941     0.026187     0.496098
H     -0.846976    -0.829317     0.112009
H     -0.626355     0.284042     1.502010
C      0.961692     1.247283    -1.145159
H      0.935600     0.550014    -1.994326
H      1.222198     2.250698    -1.491524
C     -0.384026     1.259821    -0.412939
H     -1.256189     1.189075    -1.075660
O     -0.481365     2.408415     0.419720
P     -1.228196     3.804823    -0.169202
O     -0.666733     4.946438     0.627972
O     -2.694113     3.480794    -0.360277
O     -0.551781     3.931897    -1.713662
C     -1.156354     3.315387    -2.845668
H     -2.237780     3.222703    -2.692801
H     -0.724426     2.314519    -3.017676
C     -0.862080     4.176278    -4.063993
H     -1.225526     3.648667    -4.957417
O     -1.590534     5.418423    -4.020545
C     -0.708081     6.399595    -3.444613
H     -1.118450     7.380165    -3.704480
H     -0.669545     6.281070    -2.356940
C      0.640225     6.096648    -4.092137
H      1.483842     6.484806    -3.510931
H      0.675144     6.538192    -5.095303
C      0.634209     4.559652    -4.174248
H      1.191679     4.127018    -3.339071
H      1.073823     4.196819    -5.110392
