32
Energy = -1142.572032563 Hartree (EUMP2 CORRECTED)
O      1.728659     0.919189    -1.443758
C      2.055002     2.314537    -1.403968
H      2.679502     2.528223    -2.276270
H      2.613825     2.550062    -0.484967
C      0.661481     0.761753    -0.474919
H      0.065761    -0.094704    -0.800556
H      1.078824     0.570607     0.518064
C      0.693644     2.994241    -1.403055
H      0.274787     2.967775    -2.416020
H      0.694095     4.024132    -1.034591
C     -0.120470     2.097996    -0.462074
H     -1.152292     1.963030    -0.812610
O     -0.159232     2.726068     0.821083
P     -1.163938     2.113653     2.015179
O     -2.564910     1.979979     1.450458
O     -0.809400     2.867291     3.268161
O     -0.542692     0.553590     2.159985
C     -1.381407    -0.582245     1.939630
H     -0.830659    -1.280067     1.293701
H     -2.310613    -0.270685     1.445159
C     -1.702024    -1.287360     3.246953
H     -2.408998    -2.100448     3.027914
O     -0.544139    -1.927770     3.816602
C      0.143212    -0.938478     4.617801
H      0.628065    -1.490831     5.430544
H      0.903416    -0.441309     4.006675
C     -0.920017     0.065831     5.096837
H     -0.640892     1.087926     4.829191
H     -1.062123     0.009515     6.182593
C     -2.202815    -0.349646     4.348428
H     -2.744318     0.511291     3.943769
H     -2.877852    -0.906396     5.009582
