32
Energy = -1142.571563667 Hartree (EUMP2 CORRECTED)
O      1.412603     0.063744     0.409243
C      1.908191     1.139915    -0.413530
H      2.769326     0.748676    -0.963852
H      2.231255     1.979086     0.218173
C      0.007396     0.318408     0.653847
H     -0.529638    -0.613870     0.441398
H     -0.145296     0.605682     1.699883
C      0.722969     1.531876    -1.278885
H      0.571524     0.773390    -2.059190
H      0.801486     2.519020    -1.742439
C     -0.423911     1.464538    -0.266930
H     -1.396464     1.290878    -0.739256
O     -0.495437     2.654358     0.533268
P     -1.380826     3.947250    -0.093750
O     -1.614198     4.874451     1.072154
O     -2.432775     3.418594    -1.036489
O     -0.200346     4.630784    -1.084350
C      0.991387     5.072172    -0.443261
H      1.477156     4.221929     0.054906
H      0.774751     5.835912     0.318141
C      1.900221     5.642353    -1.523216
H      2.922815     5.692211    -1.120838
O      1.976803     4.793924    -2.682960
C      1.118740     5.376568    -3.679122
H      1.423195     4.957473    -4.643150
H      0.074897     5.117344    -3.464971
C      1.367730     6.875893    -3.537699
H      0.582249     7.485902    -3.998161
H      2.327718     7.133800    -4.001079
C      1.432994     7.032455    -2.010474
H      0.435896     7.244985    -1.609412
H      2.111550     7.829270    -1.688409
