32
Energy = -1142.568146956 Hartree (EUMP2 CORRECTED)
O      1.983817     0.858320    -1.097809
C      1.772709     2.106582    -1.799768
H      2.265046     2.005620    -2.772918
H      2.216773     2.941457    -1.246143
C      0.885748     0.692479    -0.168913
H      0.466402    -0.308491    -0.333076
H      1.249603     0.778315     0.860670
C      0.263018     2.255307    -1.862856
H     -0.155465     1.568410    -2.612090
H     -0.071714     3.277310    -2.053512
C     -0.132903     1.798031    -0.457261
H     -1.170497     1.453831    -0.383062
O      0.087961     2.844678     0.496602
P     -1.167473     3.917943     0.796554
O     -0.736384     4.739691     1.988195
O     -2.469505     3.165178     0.666932
O     -1.045193     4.897311    -0.578694
C     -0.478584     6.186340    -0.400112
H     -0.849812     6.790862    -1.240980
H     -0.801809     6.642833     0.544070
C      1.044379     6.162332    -0.446992
H      1.431239     5.627749     0.425045
O      1.496877     5.409510    -1.608563
C      1.858184     6.345554    -2.620002
H      2.497754     5.820056    -3.335997
H      0.965624     6.719452    -3.150234
C      2.546722     7.464061    -1.851086
H      2.635842     8.399934    -2.415714
H      3.550128     7.135571    -1.557873
C      1.633877     7.580978    -0.625482
H      0.827388     8.301564    -0.818238
H      2.165207     7.919330     0.270179
