32
Energy = -1142.568281092 Hartree (EUMP2 CORRECTED)
O      1.358646     0.582292     1.541741
C      1.745021     1.898521     1.092795
H      2.828081     1.974084     1.230149
H      1.240410     2.667323     1.692322
C      0.153337     0.214101     0.828434
H      0.323724    -0.776870     0.389289
H     -0.694487     0.174826     1.519696
C      1.278934     1.955059    -0.352117
H      1.946041     1.359927    -0.990733
H      1.190280     2.964900    -0.758278
C     -0.090962     1.283846    -0.240823
H     -0.437671     0.852779    -1.186842
O     -1.052269     2.197126     0.283124
P     -1.929361     3.218805    -0.720198
O     -1.789844     4.632108    -0.206350
O     -3.258944     2.560054    -1.008645
O     -0.977344     3.045900    -2.106374
C     -0.616566     4.206541    -2.856720
H      0.472673     4.185015    -3.006190
H     -0.882319     5.114029    -2.298537
C     -1.289878     4.205318    -4.217739
H     -1.030520     5.145803    -4.724802
O     -0.783986     3.158436    -5.070001
C     -1.555565     1.966514    -4.796767
H     -1.600297     1.411025    -5.740454
H     -1.036072     1.364383    -4.043433
C     -2.930632     2.428900    -4.283102
H     -3.152045     2.004955    -3.300726
H     -3.731755     2.152206    -4.978733
C     -2.799265     3.959458    -4.164473
H     -3.253189     4.329640    -3.239963
H     -3.273076     4.462469    -5.016143
