32
Energy = -1142.570664782 Hartree (EUMP2 CORRECTED)
O      1.885824     0.206386    -0.631965
C      2.253860     1.536477    -1.061066
H      3.053872     1.419236    -1.798523
H      2.619783     2.119900    -0.206450
C      0.500889     0.247955    -0.211228
H     -0.029590    -0.547411    -0.750726
H      0.433378     0.075205     0.867794
C      0.964347     2.125562    -1.605872
H      0.735423     1.687582    -2.587088
H      0.939348     3.215251    -1.677643
C     -0.037115     1.637981    -0.559547
H     -1.061102     1.608602    -0.945010
O      0.052253     2.441259     0.619310
P     -0.913290     3.818326     0.743358
O     -1.292618     4.230169    -0.667290
O     -0.281713     4.706046     1.775406
O     -2.285015     3.177533     1.469747
C     -3.189242     2.391047     0.702206
H     -2.980631     1.323115     0.863515
H     -3.095876     2.632479    -0.366836
C     -4.605358     2.706732     1.152130
H     -5.307128     2.120357     0.542224
O     -4.831048     2.287040     2.516339
C     -4.603840     3.441673     3.347328
H     -5.086331     3.235711     4.308158
H     -3.528660     3.596710     3.485626
C     -5.235414     4.588088     2.563980
H     -4.835602     5.565798     2.853815
H     -6.320018     4.591799     2.726803
C     -4.902449     4.222776     1.106945
H     -4.017846     4.762306     0.757444
H     -5.732902     4.446232     0.428046
