32
Energy = -1142.568330495 Hartree (EUMP2 CORRECTED)
O      2.162030     0.629249     0.201758
C      1.394953     0.111694    -0.912209
H      1.620198    -0.957212    -0.983853
H      1.699602     0.615003    -1.838200
C      1.395826     1.687723     0.822510
H      1.201150     1.400141     1.865028
H      1.972604     2.618019     0.799155
C     -0.051449     0.433250    -0.579532
H     -0.436732    -0.266837     0.174524
H     -0.711564     0.455019    -1.450963
C      0.101011     1.828837     0.029842
H     -0.749249     2.133103     0.653837
O      0.326505     2.805730    -0.989215
P     -1.064445     3.319068    -1.832018
O     -2.080172     3.799241    -0.824730
O     -1.359345     2.272835    -2.886644
O     -0.372608     4.659420    -2.526379
C      0.922711     4.572763    -3.121663
H      0.792806     4.635104    -4.211263
H      1.427152     3.629908    -2.878778
C      1.755488     5.749342    -2.626239
H      2.610064     5.872490    -3.309251
O      1.029200     6.989192    -2.676128
C      0.590174     7.265228    -1.333221
H      0.348168     8.332042    -1.295213
H     -0.297674     6.665361    -1.101259
C      1.783659     6.858497    -0.474232
H      1.519964     6.709896     0.579139
H      2.561235     7.630127    -0.536009
C      2.229040     5.561879    -1.167237
H      1.717327     4.699205    -0.730101
H      3.310023     5.393230    -1.109743
