32
Energy = -1142.564733886 Hartree (EUMP2 CORRECTED)
O      1.880478     0.393684    -0.873151
C      0.742554     0.251869    -1.760416
H      0.801083    -0.748834    -2.201198
H      0.800113     1.006987    -2.553058
C      1.460688     1.142423     0.290935
H      1.516688     0.483099     1.169234
H      2.130408     1.997195     0.429848
C     -0.480707     0.484985    -0.889121
H     -0.715064    -0.411175    -0.298382
H     -1.361435     0.804466    -1.452900
C      0.032524     1.595535     0.029301
H     -0.559940     1.722148     0.943872
O      0.110806     2.835989    -0.674383
P     -1.364580     3.636135    -0.937397
O     -2.124411     3.637095     0.368445
O     -1.962946     3.114553    -2.226120
O     -0.717115     5.146838    -1.226997
C      0.672896     5.460245    -1.210247
H      1.230104     4.716074    -0.635711
H      0.774351     6.432005    -0.711412
C      1.279784     5.551705    -2.617908
H      1.073762     6.538710    -3.048035
O      2.724881     5.480201    -2.479176
C      3.065901     4.101429    -2.710901
H      4.145569     4.066447    -2.884581
H      2.815573     3.485012    -1.835291
C      2.206073     3.712510    -3.903980
H      2.094307     2.628052    -4.011482
H      2.656375     4.109757    -4.821929
C      0.876008     4.417446    -3.583106
H      0.153347     3.741112    -3.123981
H      0.398514     4.820291    -4.482463
