32
Energy = -1142.562995387 Hartree (EUMP2 CORRECTED)
O      0.889860     0.054511     0.560757
C      1.664503     1.270403     0.453324
H      2.714777     0.988650     0.577520
H      1.373945     1.973011     1.245166
C     -0.312226     0.227362    -0.227602
H     -0.370998    -0.615609    -0.928193
H     -1.189755     0.228387     0.427242
C      1.313540     1.829085    -0.914245
H      1.811899     1.242104    -1.698493
H      1.543450     2.890336    -1.040224
C     -0.193811     1.566795    -0.954656
H     -0.605177     1.540715    -1.970010
O     -0.909257     2.537979    -0.176306
P     -1.325483     3.972012    -0.916325
O     -2.315202     4.688372    -0.034908
O     -1.550932     3.725710    -2.398118
O      0.190548     4.698504    -0.759222
C      0.230962     6.102184    -0.972017
H     -0.709758     6.453982    -1.416090
H      0.335878     6.605202    -0.000148
C      1.426580     6.476823    -1.894585
H      2.163579     7.065867    -1.335932
O      2.147131     5.344770    -2.390779
C      1.418490     4.831849    -3.534582
H      2.173116     4.566179    -4.284424
H      0.846378     3.948260    -3.239061
C      0.475634     5.959614    -3.992846
H     -0.553750     5.686316    -3.740742
H      0.531918     6.139531    -5.072470
C      0.950661     7.167922    -3.171229
H      0.160933     7.907947    -2.996412
H      1.797836     7.667935    -3.657469
