32
Energy = -1142.566130589 Hartree (EUMP2 CORRECTED)
O      1.762122    -0.077266     0.066655
C      1.165449    -0.045682    -1.251346
H      1.348069    -1.025042    -1.704610
H      1.637521     0.736617    -1.858539
C      0.987399     0.789681     0.927736
H      0.637391     0.190798     1.779226
H      1.615904     1.611383     1.286875
C     -0.298070     0.277864    -1.006391
H     -0.827665    -0.607017    -0.627929
H     -0.813517     0.679909    -1.882965
C     -0.175285     1.328529     0.099556
H     -1.094571     1.460178     0.683448
O      0.235366     2.587776    -0.441188
P     -0.974929     3.474394    -1.227540
O     -2.218523     3.479148    -0.373412
O     -0.978234     3.056243    -2.685635
O     -0.239175     4.963479    -1.105941
C      1.185223     5.079214    -1.084368
H      1.671715     4.202255    -1.524504
H      1.504239     5.159354    -0.034965
C      1.621404     6.325296    -1.866767
H      2.485506     6.787715    -1.374595
O      2.082243     5.971834    -3.188084
C      0.875361     5.726779    -3.949809
H      1.148724     5.844967    -5.002811
H      0.515785     4.706641    -3.771680
C     -0.150724     6.759585    -3.446936
H     -1.106850     6.272791    -3.241748
H     -0.310623     7.559396    -4.179412
C      0.482181     7.310172    -2.152690
H     -0.235613     7.368688    -1.330235
H      0.915466     8.303141    -2.322374
