32
Energy = -1142.552086770 Hartree (EUMP2 CORRECTED)
O      1.106251    -0.108561     0.022450
C      1.821990     1.137104     0.166793
H      2.887978     0.899502     0.090535
H      1.611861     1.583083     1.148069
C     -0.211286     0.206876    -0.491357
H     -0.386708    -0.443856    -1.357121
H     -0.968816     0.018180     0.276256
C      1.281347     2.016838    -0.946992
H      1.695198     1.687637    -1.912106
H      1.456912     3.087114    -0.814784
C     -0.211818     1.691729    -0.870490
H     -0.762007     1.875802    -1.801394
O     -0.810057     2.425362     0.200237
P     -1.711515     3.786198    -0.191049
O     -2.259777     4.307022     1.106026
O     -2.535085     3.470892    -1.427001
O     -0.452574     4.807656    -0.685078
C     -0.476025     5.302015    -2.013837
H     -1.000644     4.597601    -2.669697
H     -1.038260     6.247588    -2.039062
C      0.951955     5.555490    -2.539979
H      1.081453     6.632961    -2.758711
O      1.959734     5.177266    -1.596568
C      3.184167     5.211096    -2.330907
H      3.572304     6.242805    -2.354610
H      3.897140     4.581777    -1.790633
C      2.855845     4.714871    -3.757498
H      3.243359     3.706271    -3.932772
H      3.294726     5.374721    -4.514463
C      1.315926     4.742068    -3.786475
H      0.903312     3.734008    -3.669115
H      0.903744     5.173005    -4.706266
