32
Energy = -1142.545676713 Hartree (EUMP2 CORRECTED)
O      1.563975     0.042672     0.847456
C      2.115072     1.066174    -0.001724
H      3.077899     0.694031    -0.363509
H      2.262199     1.997397     0.561633
C      0.142682     0.294165     0.925074
H     -0.358644    -0.677462     0.851694
H     -0.110149     0.776498     1.875516
C      1.056320     1.254646    -1.076177
H      1.076600     0.404200    -1.771649
H      1.155653     2.193384    -1.628796
C     -0.224166     1.246063    -0.229728
H     -1.106824     0.882300    -0.765957
O     -0.445402     2.523375     0.332195
P     -1.275280     3.862341    -0.281710
O     -0.328376     5.030134    -0.205760
O     -2.652147     3.830032     0.340354
O     -1.497052     3.592069    -1.935203
C     -1.652097     2.433208    -2.725218
H     -2.382277     1.733655    -2.291152
H     -0.692955     1.914674    -2.869591
C     -2.170412     2.873102    -4.088150
H     -2.092160     2.023851    -4.781384
O     -3.561562     3.221950    -4.057652
C     -3.646925     4.594928    -3.603662
H     -4.547938     5.009448    -4.068103
H     -3.747288     4.612499    -2.514671
C     -2.344885     5.283979    -4.057191
H     -1.854153     5.762681    -3.207364
H     -2.537043     6.039238    -4.828316
C     -1.474039     4.135656    -4.606491
H     -0.438111     4.205844    -4.260294
H     -1.481944     4.126338    -5.703060
