32
Energy = -1142.559373143 Hartree (EUMP2 CORRECTED)
O      0.686343    -0.243591     1.474194
C      1.177530    -0.419102     0.120890
H      0.668618    -1.293090    -0.306679
H      2.252702    -0.630947     0.161621
C      0.066825     1.053145     1.551241
H     -0.758901     0.986037     2.265175
H      0.780677     1.818928     1.884655
C      0.850096     0.863350    -0.641690
H      0.654714     0.688639    -1.700989
H      1.659497     1.596080    -0.552613
C     -0.368160     1.389334     0.126580
H     -1.262927     0.809836    -0.150135
O     -0.683098     2.763921     0.073952
P     -0.289704     3.950014    -1.042439
O      0.910338     4.718689    -0.530888
O     -1.587037     4.601989    -1.448212
O      0.232225     2.990011    -2.323882
C      1.518780     3.210704    -2.901773
H      2.026575     2.238265    -2.974469
H      2.105816     3.882472    -2.262067
C      1.391895     3.792353    -4.298895
H      2.404718     4.004514    -4.670465
O      0.831132     2.845871    -5.230099
C     -0.608757     2.966439    -5.155509
H     -0.984748     2.731530    -6.157740
H     -0.996398     2.235758    -4.437899
C     -0.916384     4.403166    -4.698040
H     -1.537793     4.405343    -3.799147
H     -1.426335     4.972710    -5.484057
C      0.465835     5.007959    -4.382306
H      0.456137     5.588007    -3.454045
H      0.804636     5.658658    -5.197558
