32
Energy = -1142.570972696 Hartree (EUMP2 CORRECTED)
O      0.648078    -0.305199     0.371592
C      1.752081     0.574033     0.079387
H      2.596977    -0.061607    -0.202649
H      2.013987     1.165756     0.967032
C     -0.568014     0.458660     0.184209
H     -1.247643    -0.159820    -0.413715
H     -1.024708     0.685381     1.153398
C      1.229222     1.473655    -1.028156
H      1.196287     0.920794    -1.976840
H      1.792145     2.401562    -1.155455
C     -0.187192     1.765722    -0.522777
H     -0.900142     2.026644    -1.313858
O     -0.148107     2.805711     0.456568
P     -0.538899     4.361883    -0.043051
O     -0.426000     5.233370     1.173338
O     -1.753214     4.271100    -0.949931
O      0.792980     4.696862    -1.030595
C      0.645965     4.679070    -2.451477
H     -0.276883     4.171517    -2.753867
H      1.512748     4.152086    -2.872068
C      0.641317     6.110840    -2.961548
H      1.513275     6.639867    -2.555565
O      0.798404     6.078819    -4.414870
C     -0.360103     6.673938    -5.019090
H     -0.038419     7.121580    -5.965535
H     -1.117596     5.902747    -5.229305
C     -0.871600     7.665078    -3.985329
H     -1.915224     7.957419    -4.149317
H     -0.250255     8.569473    -3.997807
C     -0.664554     6.869624    -2.695542
H     -1.479986     6.157819    -2.525974
H     -0.593736     7.494300    -1.799923
