32
Energy = -1142.563677537 Hartree (EUMP2 CORRECTED)
O      1.724213    -0.166832    -1.083994
C      2.515263     1.031000    -0.995429
H      3.422860     0.856075    -1.581444
H      2.781560     1.240184     0.048102
C      0.383109     0.203443    -0.689601
H     -0.296768    -0.369654    -1.330710
H      0.219737    -0.036013     0.363236
C      1.592332     2.099851    -1.563002
H      1.867272     3.124382    -1.296341
H      1.546398     1.996744    -2.655376
C      0.240052     1.726098    -0.929712
H     -0.595837     1.943119    -1.604279
O     -0.034032     2.530986     0.219222
P      0.711413     2.436165     1.728781
O      1.785366     3.505896     1.762761
O      0.964487     1.002695     2.122434
O     -0.602450     2.952113     2.607048
C     -1.006496     4.318871     2.490445
H     -2.010071     4.340990     2.046292
H     -0.310098     4.877556     1.850984
C     -1.037379     4.954624     3.869816
H     -1.359802     6.000495     3.763463
O     -2.032278     4.326122     4.711046
C     -1.344699     3.332162     5.494492
H     -1.991627     3.104479     6.348122
H     -1.178543     2.431616     4.893927
C     -0.026802     4.001594     5.871241
H      0.755542     3.276194     6.119412
H     -0.181717     4.657319     6.736817
C      0.310093     4.822395     4.613700
H      1.040150     4.313351     3.977889
H      0.715641     5.807717     4.869938
