32
Energy = -1142.567854470 Hartree (EUMP2 CORRECTED)
O      0.919044    -0.223278    -0.593615
C      1.560085     0.893464    -1.251811
H      2.103704     0.484014    -2.108809
H      2.262154     1.382801    -0.565293
C     -0.279193     0.271269     0.050342
H     -1.121434    -0.335811    -0.306976
H     -0.183143     0.169176     1.136678
C      0.416975     1.827720    -1.608851
H     -0.143326     1.434581    -2.467859
H      0.715633     2.859259    -1.811270
C     -0.430641     1.741382    -0.339924
H     -1.469004     2.047893    -0.505977
O      0.158003     2.522133     0.702589
P     -0.162342     4.182036     0.732929
O     -1.228324     4.430477    -0.321251
O      1.134207     4.936948     0.812290
O     -0.890181     4.286755     2.238787
C     -1.631696     3.216227     2.809341
H     -1.109322     2.874758     3.713217
H     -1.715227     2.367083     2.117488
C     -3.025771     3.700929     3.172935
H     -3.583327     2.861217     3.614200
O     -2.965652     4.713464     4.205004
C     -3.087147     5.987156     3.546214
H     -3.381195     6.711257     4.312894
H     -2.125571     6.272564     3.104524
C     -4.140220     5.742876     2.472646
H     -4.113934     6.490465     1.672262
H     -5.137843     5.749818     2.929369
C     -3.764935     4.338436     1.975154
H     -3.097870     4.404835     1.108932
H     -4.646318     3.750918     1.692444
