32
Energy = -1142.574505431 Hartree (EUMP2 CORRECTED)
O     -0.573257     0.229224     0.901185
C      0.724660     0.872508     0.952058
H      1.467665     0.084560     1.114171
H      0.748932     1.581172     1.788528
C     -1.378436     0.904902    -0.093931
H     -1.571857     0.204629    -0.919460
H     -2.326908     1.210683     0.357756
C      0.859946     1.604427    -0.374507
H      1.135749     0.908419    -1.178539
H      1.571270     2.434758    -0.348439
C     -0.572552     2.104102    -0.566920
H     -0.798285     2.411850    -1.593671
O     -0.827833     3.175949     0.339867
P     -0.385748     4.735093    -0.156340
O     -0.339204     4.729914    -1.664928
O      0.753288     5.195620     0.728731
O     -1.789342     5.491453     0.327605
C     -1.821143     6.306761     1.501372
H     -2.489269     7.144331     1.265409
H     -0.816536     6.689129     1.725943
C     -2.370393     5.577944     2.720835
H     -2.470282     6.323123     3.524543
O     -3.707534     5.088829     2.477590
C     -3.572430     3.702733     2.102862
H     -4.559032     3.246573     2.238404
H     -3.257076     3.629421     1.057197
C     -2.497358     3.162126     3.039910
H     -1.997698     2.275106     2.638145
H     -2.946016     2.912131     4.009790
C     -1.536807     4.356707     3.170417
H     -0.657126     4.233368     2.535598
H     -1.188595     4.485955     4.202051
