32
Energy = -1142.567794464 Hartree (EUMP2 CORRECTED)
O      0.790940     0.689508    -1.508900
C      1.140629     2.087827    -1.499393
H      1.632111     2.303421    -2.454007
H      1.824446     2.288254    -0.666177
C     -0.398975     0.524834    -0.705361
H     -1.182420     0.106079    -1.353740
H     -0.217689    -0.164616     0.118556
C     -0.188563     2.803445    -1.300703
H     -0.773913     2.778874    -2.230296
H     -0.094649     3.834693    -0.948650
C     -0.836543     1.917337    -0.234731
H     -1.932619     1.987071    -0.225331
O     -0.374506     2.385079     1.034633
P      0.315597     1.452837     2.236029
O     -0.563718     0.256263     2.544296
O      0.799249     2.436945     3.268265
O      1.635344     0.890372     1.356674
C      2.002750    -0.489013     1.365381
H      1.199371    -1.089553     1.814422
H      2.149114    -0.788042     0.319286
C      3.294221    -0.708772     2.134543
H      3.484739    -1.791021     2.172042
O      4.435248    -0.142570     1.460428
C      4.524235     1.242904     1.862234
H      5.588191     1.502808     1.823096
H      3.968456     1.863258     1.151212
C      3.912297     1.338771     3.271052
H      3.125058     2.095683     3.309377
H      4.674440     1.579099     4.021994
C      3.308908    -0.057978     3.520553
H      2.309756     0.004490     3.963216
H      3.949556    -0.648768     4.186530
