32
Energy = -1142.564437143 Hartree (EUMP2 CORRECTED)
O      1.646927     0.141087    -0.093068
C      2.042405     1.456218    -0.512760
H      2.852998     1.333459    -1.238516
H      2.398979     2.042137     0.345652
C      0.267913     0.228428     0.368741
H     -0.298354    -0.541959    -0.170751
H      0.230936     0.060074     1.445660
C      0.765888     2.056545    -1.079778
H      0.534831     1.592361    -2.047974
H      0.778947     3.145523    -1.181612
C     -0.247557     1.622446    -0.022309
H     -1.272114     1.554299    -0.415618
O     -0.251111     2.646859     0.979700
P     -0.430851     2.485199     2.643392
O     -0.179314     3.873431     3.172724
O      0.209028     1.224788     3.167050
O     -2.089076     2.182964     2.672028
C     -2.938506     3.197895     2.144087
H     -2.461995     3.700522     1.293736
H     -3.157896     3.950174     2.918513
C     -4.218796     2.525549     1.683761
H     -4.919363     3.294036     1.327251
O     -3.957786     1.672106     0.541705
C     -3.878480     0.322896     1.029770
H     -4.030843    -0.336001     0.168822
H     -2.893609     0.142177     1.477008
C     -4.982714     0.251683     2.077449
H     -4.861472    -0.588435     2.770470
H     -5.955341     0.157932     1.579210
C     -4.847143     1.617685     2.765883
H     -4.168014     1.547463     3.620289
H     -5.809545     2.009313     3.114133
