32
Energy = -1142.562320438 Hartree (EUMP2 CORRECTED)
O      1.554928    -0.600354    -0.378926
C      1.790918     0.502551    -1.268642
H      2.262395     0.092453    -2.167253
H      2.454309     1.231712    -0.788338
C      0.632204    -0.100619     0.613497
H      0.036119    -0.960154     0.937731
H      1.179839     0.328856     1.453999
C      0.394787     1.071974    -1.487738
H      0.367333     2.105705    -1.845495
H     -0.147852     0.431985    -2.195556
C     -0.237119     0.979261    -0.082783
H     -1.282200     0.655529    -0.144750
O     -0.315073     2.261867     0.539479
P      0.805663     3.075020     1.487438
O      2.117351     2.308717     1.477049
O      0.104811     3.546114     2.730845
O      1.003509     4.435574     0.532276
C      1.996136     4.460860    -0.489109
H      1.503046     4.687587    -1.445100
H      2.511613     3.494132    -0.555902
C      3.021783     5.539727    -0.181893
H      3.809062     5.497657    -0.948282
O      2.463581     6.863811    -0.272379
C      1.872490     7.176066     1.011394
H      1.998366     8.256245     1.147628
H      0.806934     6.927811     0.989311
C      2.611703     6.329774     2.064879
H      1.903247     5.710979     2.620260
H      3.158003     6.960490     2.776302
C      3.575522     5.451966     1.242023
H      3.609507     4.418852     1.602022
H      4.589037     5.871233     1.255731
