32
Energy = -1142.566140995 Hartree (EUMP2 CORRECTED)
O      1.604051     0.469733     0.957815
C      2.127284     1.438178     0.025232
H      3.073209     1.036199    -0.351763
H      2.306823     2.394767     0.533198
C      0.158422     0.595487     0.965960
H     -0.258122    -0.401438     0.773779
H     -0.177792     0.963785     1.940400
C      1.032270     1.581738    -1.019663
H      1.025094     0.703647    -1.679285
H      1.088950     2.496158    -1.616599
C     -0.211861     1.597269    -0.131575
H     -1.125050     1.303504    -0.655899
O     -0.329390     2.898457     0.439353
P     -1.770003     3.762869     0.365987
O     -1.886673     4.418651    -0.994428
O     -1.900923     4.484818     1.678919
O     -2.839836     2.452709     0.361887
C     -3.696431     2.279958    -0.761425
H     -3.115448     2.126281    -1.679640
H     -4.330847     3.165679    -0.913773
C     -4.558657     1.065785    -0.477981
H     -5.238161     0.905718    -1.327291
O     -3.738553    -0.127650    -0.396540
C     -3.595069    -0.452055     0.996079
H     -3.306485    -1.506749     1.049047
H     -2.818487     0.175573     1.449654
C     -4.963616    -0.140923     1.587654
H     -4.944467    -0.032687     2.677910
H     -5.668402    -0.939644     1.325917
C     -5.315854     1.165495     0.864204
H     -4.940360     2.024797     1.427883
H     -6.394245     1.287740     0.713723
