32
Energy = -1142.566252265 Hartree (EUMP2 CORRECTED)
O      0.153599    -0.129642     0.236641
C      1.141958     0.592018    -0.534249
H      1.659952    -0.147092    -1.153229
H      1.858009     1.082202     0.137097
C     -0.950117     0.770296     0.498682
H     -1.865560     0.290128     0.128133
H     -1.035870     0.943853     1.576795
C      0.339171     1.623426    -1.308494
H     -0.190446     1.147021    -2.144542
H      0.925268     2.468773    -1.678980
C     -0.653522     2.075857    -0.237089
H     -1.540870     2.556301    -0.661631
O      0.000634     2.956777     0.678113
P     -0.050547     4.622552     0.360339
O     -1.027659     4.844002    -0.775184
O      1.371331     5.119329     0.367097
O     -0.825429     5.139209     1.754689
C     -0.984713     4.361050     2.933341
H     -0.542954     4.915629     3.772053
H     -0.483737     3.389622     2.839364
C     -2.466066     4.149154     3.206011
H     -2.572349     3.528420     4.108394
O     -3.109504     5.409050     3.516939
C     -3.813404     5.825460     2.332860
H     -4.555928     6.564505     2.650469
H     -3.113389     6.270837     1.615985
C     -4.401647     4.529493     1.791611
H     -4.704900     4.602324     0.741394
H     -5.270669     4.237811     2.394805
C     -3.228137     3.562937     1.997942
H     -2.587365     3.579973     1.114436
H     -3.551678     2.531787     2.181417
