32
Energy = -1142.569888065 Hartree (EUMP2 CORRECTED)
O      0.769533    -0.461811     0.290575
C      1.806361     0.437776    -0.149977
H      2.621578    -0.182701    -0.534743
H      2.168041     1.043663     0.691794
C     -0.483040     0.263809     0.236740
H     -1.204294    -0.374908    -0.286839
H     -0.839088     0.475592     1.250318
C      1.125271     1.315544    -1.186649
H      0.981071     0.753289    -2.119379
H      1.642581     2.256328    -1.390567
C     -0.220840     1.578767    -0.505485
H     -1.030780     1.832285    -1.199619
O     -0.078396     2.615901     0.470430
P     -0.515008     4.166298     0.009241
O     -0.291622     5.039035     1.213786
O     -1.800321     4.102864    -0.789988
O      0.742080     4.478618    -1.076347
C      0.477216     4.771474    -2.448351
H     -0.596441     4.708267    -2.658521
H      1.002651     4.010957    -3.049019
C      1.002361     6.160442    -2.843417
H      1.400142     6.119496    -3.865350
O     -0.052830     7.140810    -2.894489
C     -0.297186     7.519710    -1.519757
H     -0.733875     8.522765    -1.551258
H     -1.018768     6.828622    -1.069616
C      1.066389     7.449460    -0.805577
H      0.979071     6.860933     0.111173
H      1.438720     8.449663    -0.554963
C      1.985959     6.757571    -1.832308
H      2.623482     5.999013    -1.370235
H      2.616311     7.490577    -2.350486
