32
Energy = -1142.569164054 Hartree (EUMP2 CORRECTED)
O      1.350550    -0.109998    -0.302696
C      1.996168     1.009755    -0.948519
H      2.750144     0.591964    -1.622738
H      2.480906     1.649460    -0.199900
C      0.009899     0.303791     0.056877
H     -0.682606    -0.446511    -0.346229
H     -0.084701     0.348954     1.146950
C      0.861305     1.748808    -1.636202
H      0.538989     1.199710    -2.531191
H      1.080429     2.785725    -1.902867
C     -0.218311     1.687650    -0.555637
H     -1.222166     1.826839    -0.967660
O      0.054132     2.662325     0.453473
P     -0.672239     4.184148     0.340074
O     -1.382961     4.223250    -1.000183
O      0.298692     5.216434     0.835227
O     -1.843122     4.023322     1.534131
C     -2.598566     2.821027     1.578296
H     -2.037796     2.041097     2.110197
H     -2.834234     2.469022     0.560709
C     -3.907096     3.105714     2.294981
H     -4.519514     2.193360     2.282118
O     -3.692648     3.408945     3.690149
C     -3.612158     4.843102     3.793215
H     -3.786900     5.091681     4.844873
H     -2.619730     5.184390     3.481215
C     -4.699420     5.342671     2.845678
H     -4.522649     6.369831     2.508666
H     -5.672883     5.304336     3.349153
C     -4.641607     4.324971     1.691910
H     -4.069749     4.718317     0.846719
H     -5.642604     4.053480     1.338490
