32
Energy = -1142.573416788 Hartree (EUMP2 CORRECTED)
O      0.579770     0.104057     1.441493
C      1.562314     0.824123     0.664700
H      2.481078     0.229392     0.685874
H      1.750454     1.807233     1.116284
C     -0.728277     0.413225     0.900072
H     -1.213572    -0.537823     0.644718
H     -1.322313     0.944951     1.650233
C      0.932435     0.973218    -0.709202
H      0.972788     0.017394    -1.249117
H      1.367738     1.765618    -1.323114
C     -0.515539     1.292488    -0.330688
H     -1.225927     1.085886    -1.138725
O     -0.657398     2.653985     0.093312
P     -0.790154     3.830257    -1.101825
O     -1.269660     5.079296    -0.402698
O     -1.423531     3.206890    -2.322521
O      0.830568     4.028458    -1.506816
C      1.612877     4.999550    -0.812775
H      2.506734     4.480294    -0.437089
H      1.061196     5.432118     0.031165
C      2.031857     6.099690    -1.782606
H      2.880655     6.641954    -1.337866
O      2.517193     5.559500    -3.024777
C      1.435990     5.668435    -3.971387
H      1.883201     5.587577    -4.967384
H      0.716733     4.857136    -3.811332
C      0.822288     7.031045    -3.665981
H     -0.195727     7.133958    -4.057728
H      1.447716     7.822018    -4.098578
C      0.871992     7.060271    -2.129685
H     -0.062686     6.685111    -1.699756
H      1.052375     8.065736    -1.733414
