32
Energy = -1142.574147982 Hartree (EUMP2 CORRECTED)
O      1.068975     0.028945     0.512272
C      1.544498     0.781946    -0.632713
H      2.229574     0.127905    -1.183352
H      2.087811     1.670732    -0.297841
C     -0.319455     0.356812     0.731715
H     -0.917775    -0.553683     0.578184
H     -0.449318     0.713203     1.758464
C      0.291025     1.157579    -1.402850
H     -0.075756     0.297061    -1.980670
H      0.407822     2.011568    -2.071379
C     -0.701028     1.442388    -0.271295
H     -1.744245     1.372283    -0.604415
O     -0.489925     2.698290     0.382320
P     -0.440891     4.121691    -0.517386
O     -0.754997     5.231635     0.453210
O     -1.112915     3.893863    -1.849216
O      1.209546     4.166081    -0.847641
C      2.075989     4.506445     0.233621
H      2.125256     3.680291     0.957201
H      1.702823     5.402210     0.750555
C      3.450813     4.771316    -0.347970
H      4.130373     5.059748     0.465988
O      4.013904     3.564124    -0.918230
C      3.802870     3.630716    -2.337910
H      4.505033     2.926663    -2.796036
H      2.771020     3.347544    -2.578046
C      4.066170     5.092876    -2.678645
H      3.634862     5.391354    -3.640735
H      5.147622     5.273345    -2.708254
C      3.420329     5.815625    -1.487005
H      2.382331     6.075826    -1.712577
H      3.957911     6.729747    -1.211703
