32
Energy = -1142.562979564 Hartree (EUMP2 CORRECTED)
O      1.821613     0.436720     0.005770
C      1.941720     1.566554    -0.889360
H      2.754627     1.334128    -1.584764
H      2.188230     2.472338    -0.320794
C      0.435941     0.342101     0.417901
H      0.080195    -0.664030     0.159017
H      0.361202     0.496460     1.499076
C      0.572122     1.694994    -1.531874
H      0.430522     0.908228    -2.285609
H      0.376622     2.674120    -1.975124
C     -0.335424     1.426729    -0.330506
H     -1.347631     1.121916    -0.617507
O     -0.402809     2.565317     0.537120
P     -1.418685     3.820736     0.099683
O     -1.665258     4.664673     1.326086
O     -2.511627     3.267979    -0.788716
O     -0.292603     4.638410    -0.867341
C     -0.431845     6.052374    -0.943300
H     -1.238750     6.337316    -1.636385
H     -0.669888     6.438329     0.057200
C      0.876714     6.650391    -1.430986
H      1.684963     5.966320    -1.144388
O      0.931549     6.760688    -2.881909
C      1.058741     8.142222    -3.232244
H      1.585001     8.190444    -4.190798
H      0.064342     8.603431    -3.351553
C      1.805924     8.773120    -2.063775
H      1.715406     9.865125    -2.030823
H      2.869134     8.510601    -2.117390
C      1.129256     8.065563    -0.890196
H      0.174226     8.556383    -0.658462
H      1.723950     8.044839     0.028182
