32
Energy = -1142.571085063 Hartree (EUMP2 CORRECTED)
O      0.916871     0.102635    -1.017615
C      1.618892     1.040288    -0.168159
H      2.688174     0.871876    -0.329919
H      1.369443     0.851461     0.883678
C     -0.357701     0.691862    -1.366014
H     -0.435648     0.686277    -2.461535
H     -1.171132     0.099273    -0.932779
C      1.115408     2.404659    -0.604199
H      1.573992     2.689849    -1.561025
H      1.250642     3.201641     0.132410
C     -0.373599     2.111464    -0.798723
H     -0.874133     2.829593    -1.457394
O     -1.044618     2.057731     0.466156
P     -1.574711     3.504277     1.157370
O     -0.362659     4.334655     1.506591
O     -2.676291     3.131417     2.118647
O     -2.257342     4.189919    -0.226360
C     -3.645614     4.513697    -0.225689
H     -3.741889     5.515496    -0.663273
H     -4.037538     4.522102     0.799097
C     -4.469332     3.543359    -1.053663
H     -5.525106     3.855748    -0.977554
O     -4.112237     3.651205    -2.459616
C     -3.729899     2.357471    -2.948645
H     -4.029833     2.303846    -4.001127
H     -2.639384     2.239745    -2.881801
C     -4.442075     1.364348    -2.039720
H     -3.985709     0.367803    -2.055842
H     -5.494058     1.270841    -2.339874
C     -4.311571     2.065444    -0.686661
H     -3.325970     1.884044    -0.250526
H     -5.060404     1.751546     0.047913
