32
Energy = -1142.568638098 Hartree (EUMP2 CORRECTED)
O      1.351474     0.188305     0.212457
C      1.848191     1.470808     0.655332
H      2.896874     1.324189     0.933634
H      1.278992     1.811722     1.530669
C      0.284294     0.435151    -0.736712
H      0.516988    -0.133851    -1.645801
H     -0.670300     0.097584    -0.320452
C      1.625331     2.396592    -0.527924
H      2.371275     2.208325    -1.310858
H      1.612498     3.461539    -0.288510
C      0.245177     1.942039    -0.997643
H      0.037269     2.178471    -2.045771
O     -0.767596     2.511862    -0.155616
P     -1.615522     3.816872    -0.749131
O     -2.603500     4.221287     0.310567
O     -1.992331     3.566233    -2.200623
O     -0.309210     4.894627    -0.771084
C     -0.314670     5.915723    -1.753843
H     -1.159411     5.775751    -2.440142
H     -0.420595     6.898351    -1.266542
C      0.998268     5.902942    -2.536086
H      1.826715     6.207075    -1.886120
O      1.344024     4.599241    -3.018978
C      0.500959     4.350428    -4.164729
H      1.058540     3.667621    -4.813739
H     -0.429523     3.878124    -3.830462
C      0.241085     5.730683    -4.809953
H     -0.833948     5.908125    -4.915590
H      0.689183     5.811301    -5.806280
C      0.881395     6.727561    -3.822364
H      0.285322     7.639190    -3.690883
H      1.881772     7.021189    -4.159425
