32
Energy = -1142.561098431 Hartree (EUMP2 CORRECTED)
O      1.621383     0.295455     0.113587
C      2.032772     1.523765    -0.525775
H      2.949339     1.300357    -1.080853
H      2.236598     2.292834     0.230904
C      0.181760     0.343109     0.270200
H     -0.226617    -0.573098    -0.175214
H     -0.075618     0.387443     1.333380
C      0.846978     1.920012    -1.387657
H      0.796474     1.277210    -2.277100
H      0.840278     2.969151    -1.689951
C     -0.315786     1.600336    -0.444925
H     -1.268889     1.446133    -0.963397
O     -0.470703     2.623897     0.545516
P     -1.488225     3.906908     0.191032
O     -1.677562     4.669122     1.473105
O     -2.612475     3.412710    -0.698756
O     -0.421750     4.775275    -0.800729
C     -0.949451     5.295610    -2.017972
H     -1.392850     4.503502    -2.632736
H     -1.737096     6.031200    -1.794293
C      0.193390     5.964450    -2.774362
H      1.045998     6.044921    -2.086268
O      0.624260     5.150647    -3.904121
C      0.765947     5.979312    -5.067829
H      1.666225     5.660411    -5.604224
H     -0.103682     5.837799    -5.728075
C      0.825854     7.414103    -4.550977
H      0.537617     8.150890    -5.309630
H      1.838480     7.651715    -4.203402
C     -0.136631     7.331807    -3.368910
H     -1.176144     7.347559    -3.724025
H     -0.016485     8.131578    -2.631154
