32
Energy = -1142.573563301 Hartree (EUMP2 CORRECTED)
O      0.411333    -0.569977    -0.598579
C      1.424102     0.317568    -1.125574
H      2.050489    -0.281078    -1.794167
H      2.034924     0.718776    -0.306838
C     -0.760033     0.225761    -0.300783
H     -1.612094    -0.232559    -0.819336
H     -0.942052     0.230998     0.779101
C      0.643950     1.427421    -1.807282
H      0.233256     1.069391    -2.761389
H      1.205388     2.352925    -1.961273
C     -0.482963     1.645477    -0.795641
H     -1.376042     2.119366    -1.224336
O     -0.014637     2.406973     0.321462
P     -0.036490     4.086645     0.121873
O     -1.488194     4.517291     0.032394
O      1.006930     4.496674    -0.888537
O      0.570542     4.436554     1.625099
C     -0.289223     4.302239     2.760726
H      0.142734     3.540659     3.422363
H     -1.296010     3.992477     2.450807
C     -0.375802     5.630777     3.492646
H     -1.033024     5.502832     4.364756
O      0.910482     6.014857     4.030155
C      1.517479     6.893516     3.063324
H      2.301161     7.445902     3.592167
H      1.951973     6.307990     2.246390
C      0.363830     7.763554     2.573156
H      0.553694     8.189015     1.581884
H      0.196777     8.585934     3.279386
C     -0.827621     6.788451     2.575083
H     -1.047900     6.410083     1.573022
H     -1.736563     7.262817     2.961951
