32
Energy = -1142.559837781 Hartree (EUMP2 CORRECTED)
O      2.271631     0.733706    -0.521035
C      1.878488     1.965374    -1.166826
H      2.494704     2.061347    -2.065908
H      2.057054     2.819513    -0.501695
C      1.135690     0.259780     0.235327
H      0.968170    -0.788344    -0.045533
H      1.340805     0.330385     1.308741
C      0.392748     1.799237    -1.431241
H      0.234775     1.099834    -2.264388
H     -0.124271     2.746189    -1.608144
C     -0.062453     1.150050    -0.121105
H     -0.971048     0.548848    -0.228025
O     -0.204517     2.083552     0.948165
P     -1.194844     3.448560     1.021693
O     -0.918831     4.270272    -0.226494
O     -1.094518     3.954898     2.429210
O     -2.764765     2.867729     0.837988
C     -3.145603     1.910976    -0.133261
H     -3.112919     0.899660     0.295055
H     -2.497313     1.958137    -1.022342
C     -4.562788     2.232957    -0.581010
H     -4.855177     1.521822    -1.366774
O     -5.509391     2.039560     0.491179
C     -5.699491     3.325345     1.114019
H     -6.637881     3.265152     1.674497
H     -4.865129     3.538347     1.790139
C     -5.733787     4.301692    -0.057923
H     -5.486987     5.325855     0.241795
H     -6.733673     4.301341    -0.508599
C     -4.696559     3.706609    -1.026872
H     -3.730464     4.211484    -0.930100
H     -5.024704     3.779252    -2.069864
