32
Energy = -1142.573241033 Hartree (EUMP2 CORRECTED)
O     -0.046165    -0.521085     0.249874
C      1.147113     0.117939    -0.259477
H      1.839189    -0.682552    -0.539274
H      1.600101     0.741404     0.521925
C     -1.170560     0.346698    -0.032666
H     -1.903635    -0.235078    -0.607041
H     -1.619342     0.688251     0.905418
C      0.660453     0.972464    -1.416538
H      0.440908     0.341498    -2.288882
H      1.329575     1.783482    -1.712147
C     -0.635143     1.533595    -0.832375
H     -1.337956     1.875922    -1.601006
O     -0.350906     2.579138     0.099500
P     -0.162051     4.141938    -0.505683
O     -1.322742     4.979626    -0.015691
O      0.259483     4.048813    -1.953707
O      1.201520     4.552626     0.361566
C      1.068157     5.167911     1.645492
H      1.648104     4.573959     2.364153
H      0.014093     5.195687     1.949712
C      1.616073     6.584257     1.602001
H      1.448886     7.048234     2.584596
O      3.042823     6.609612     1.400279
C      3.283011     6.572623    -0.025568
H      4.191804     7.161320    -0.195564
H      3.451200     5.537121    -0.337919
C      2.032344     7.157182    -0.708883
H      1.612749     6.438147    -1.416191
H      2.265267     8.082126    -1.249788
C      1.051693     7.419959     0.451091
H      0.025279     7.130914     0.204822
H      1.068703     8.478095     0.739342
