32
Energy = -1142.562531156 Hartree (EUMP2 CORRECTED)
O     -1.124271     0.674210    -1.384014
C     -0.009339     1.395397    -1.952266
H     -0.190458     1.440776    -3.030807
H      0.924320     0.863615    -1.747986
C     -1.149199     1.003467     0.013774
H     -2.193949     0.912732     0.332118
H     -0.532016     0.317608     0.596738
C     -0.042411     2.753591    -1.257117
H      0.942942     3.219909    -1.158363
H     -0.708200     3.436364    -1.799464
C     -0.620154     2.452174     0.149061
H     -1.442567     3.137232     0.380757
O      0.307897     2.682341     1.204548
P      1.805805     1.975208     1.454638
O      1.848263     1.455440     2.872301
O      2.853257     2.893775     0.865727
O      1.696714     0.669698     0.403666
C      1.921823    -0.666120     0.845539
H      1.776778    -0.742006     1.932170
H      1.188929    -1.300097     0.327484
C      3.323317    -1.118027     0.461854
H      3.415861    -2.189527     0.694327
O      3.509369    -1.005097    -0.966864
C      4.217630     0.230917    -1.199004
H      4.657327     0.153117    -2.198959
H      3.527603     1.079429    -1.147504
C      5.236096     0.296671    -0.068156
H      5.575392     1.319307     0.124264
H      6.102135    -0.332556    -0.309204
C      4.446020    -0.282203     1.116306
H      4.027859     0.517034     1.732087
H      5.072065    -0.906928     1.763820
