32
Energy = -1142.568383199 Hartree (EUMP2 CORRECTED)
O      1.576360     0.278776     0.187097
C      1.876991     1.393201    -0.681799
H      2.809718     1.148543    -1.200563
H      2.009873     2.308186    -0.089823
C      0.135034     0.190320     0.316964
H     -0.165982    -0.816052    -0.003121
H     -0.150922     0.351524     1.360871
C      0.659313     1.511069    -1.581571
H      0.660923     0.710909    -2.334389
H      0.557209     2.476921    -2.076607
C     -0.466092     1.274584    -0.574593
H     -1.405729     0.974280    -1.051304
O     -0.683447     2.417880     0.254065
P     -1.528542     3.720825    -0.387948
O     -2.106618     4.470463     0.778681
O     -2.309090     3.236204    -1.594304
O     -0.199219     4.593024    -0.971589
C     -0.294546     5.141401    -2.281618
H     -1.191251     5.768162    -2.373490
H     -0.360081     4.349347    -3.044372
C      0.941993     5.991567    -2.515898
H      0.841422     6.472306    -3.500009
O      1.045263     7.066412    -1.563910
C      1.964446     6.634478    -0.546495
H      2.297965     7.534229    -0.020414
H      1.457278     5.954840     0.147097
C      3.063926     5.924473    -1.332041
H      3.665474     5.250633    -0.711333
H      3.730186     6.668077    -1.785771
C      2.256167     5.182357    -2.409925
H      2.037199     4.162311    -2.083221
H      2.781662     5.132546    -3.369895
