32
Energy = -1142.570577869 Hartree (EUMP2 CORRECTED)
O      1.588513    -0.063917     0.111063
C      0.760598    -0.136808    -1.072980
H      0.826964    -1.164950    -1.442691
H      1.135374     0.555806    -1.836973
C      1.012309     0.924393     0.997783
H      0.807390     0.433209     1.958460
H      1.720828     1.746061     1.145257
C     -0.622088     0.282406    -0.605658
H     -1.099061    -0.531525    -0.042847
H     -1.277520     0.615988    -1.414760
C     -0.266014     1.433732     0.338184
H     -1.058657     1.667424     1.059756
O      0.076599     2.610481    -0.398121
P     -1.225917     3.456556    -1.078405
O     -2.326616     3.581361    -0.056475
O     -1.440166     2.893783    -2.472165
O     -0.450694     4.923794    -1.210109
C      0.883046     4.933528    -1.728686
H      1.157884     3.958842    -2.148453
H      1.582636     5.175065    -0.919392
C      0.933490     5.982785    -2.828200
H      0.779910     6.980524    -2.400290
O      2.264394     5.993933    -3.416925
C      2.176016     5.286399    -4.662600
H      3.041004     5.586748    -5.262112
H      2.216255     4.199177    -4.493629
C      0.825502     5.698997    -5.228340
H      0.463782     5.025132    -6.013341
H      0.900603     6.711235    -5.644421
C     -0.054417     5.674475    -3.970951
H     -0.510857     4.690242    -3.813157
H     -0.867848     6.405394    -4.011834
