32
Energy = -1142.563312887 Hartree (EUMP2 CORRECTED)
O      1.384778     0.101565     0.175950
C      2.011509     1.317257    -0.287889
H      2.979265     1.032600    -0.712584
H      2.164991     2.007349     0.552391
C     -0.048525     0.307914     0.135797
H     -0.483662    -0.533201    -0.418582
H     -0.451573     0.331718     1.153533
C      1.023809     1.897195    -1.285092
H      1.055472     1.322597    -2.221226
H      1.170763     2.956633    -1.504076
C     -0.300147     1.649434    -0.557871
H     -1.172879     1.619069    -1.220947
O     -0.505354     2.634862     0.460185
P     -1.440905     3.973269     0.076255
O     -1.599858     4.749249     1.352529
O     -2.574599     3.531260    -0.829335
O     -0.328948     4.798716    -0.902743
C     -0.704739     5.058279    -2.249770
H     -0.979707     4.139916    -2.786262
H     -1.578793     5.726263    -2.267310
C      0.467025     5.727096    -2.949000
H      1.064720     6.245653    -2.189929
O      1.357611     4.754837    -3.567272
C      1.322210     4.948137    -4.984322
H      2.272823     4.586054    -5.387774
H      0.501033     4.365690    -5.434171
C      1.081757     6.442141    -5.161450
H      0.737208     6.710216    -6.167035
H      2.005394     6.992995    -4.948238
C      0.036865     6.685289    -4.071472
H     -0.959646     6.409925    -4.442530
H     -0.012199     7.721126    -3.721538
