32
Energy = -1142.564507342 Hartree (EUMP2 CORRECTED)
O      0.955981     0.135015     0.826827
C      1.641685     1.407389     0.751685
H      2.690194     1.216955     1.001638
H      1.210068     2.109518     1.476352
C     -0.141910     0.167938    -0.116058
H     -0.024177    -0.687904    -0.794009
H     -1.093164     0.088864     0.420215
C      1.405293     1.889809    -0.668052
H      2.032316     1.319390    -1.368212
H      1.566866     2.960953    -0.813618
C     -0.059855     1.497388    -0.863675
H     -0.348071     1.416319    -1.917845
O     -0.946156     2.409341    -0.196077
P     -1.290629     3.848717    -0.958480
O     -2.515270     4.446453    -0.316147
O     -1.154414     3.669199    -2.462493
O      0.082068     4.666744    -0.414127
C      0.198627     6.013978    -0.854121
H     -0.779907     6.437767    -1.119492
H      0.579363     6.575132     0.009182
C      1.187835     6.168107    -2.038159
H      1.840667     7.027209    -1.813290
O      2.068892     5.042542    -2.192126
C      1.785950     4.421360    -3.464135
H      2.704157     3.910244    -3.772662
H      0.958456     3.711286    -3.351612
C      1.378489     5.583267    -4.361879
H      0.837342     5.256167    -5.257088
H      2.264794     6.153241    -4.670476
C      0.501754     6.389880    -3.398772
H     -0.503216     5.955208    -3.380213
H      0.431442     7.454413    -3.650277
