32
Energy = -1142.573036403 Hartree (EUMP2 CORRECTED)
O      0.685648    -0.274082     0.835574
C      1.385220     0.957664     1.108298
H      2.366552     0.682848     1.507141
H      0.836053     1.549652     1.852822
C     -0.288041     0.001039    -0.201133
H     -0.170059    -0.772190    -0.969830
H     -1.300556    -0.037575     0.214014
C      1.417256     1.677282    -0.229741
H      2.160717     1.209135    -0.889611
H      1.600590     2.752575    -0.161169
C      0.000010     1.405452    -0.740063
H     -0.104892     1.467211    -1.829009
O     -0.911692     2.317771    -0.117006
P     -1.427687     3.633830    -1.000322
O     -2.507071     4.333204    -0.217386
O     -1.581684     3.220216    -2.453672
O      0.013654     4.508233    -0.867411
C     -0.020150     5.895297    -1.201838
H      0.336620     6.456219    -0.327848
H     -1.044175     6.227832    -1.425068
C      0.886299     6.186776    -2.385893
H      0.898090     7.275819    -2.548084
O      2.255082     5.820922    -2.071678
C      2.551760     4.618228    -2.798966
H      3.642476     4.548066    -2.866545
H      2.152728     3.747536    -2.264195
C      1.841287     4.809221    -4.131038
H      1.707428     3.872763    -4.684553
H      2.411113     5.509749    -4.754914
C      0.511999     5.416903    -3.668055
H     -0.209931     4.625620    -3.437857
H      0.067565     6.082552    -4.416982
