32
Energy = -1142.564273558 Hartree (EUMP2 CORRECTED)
O      1.836948     0.695377    -0.818894
C      1.776175     1.906133    -1.610571
H      2.360354     1.716193    -2.517360
H      2.207152     2.749705    -1.058932
C      0.628263     0.630424    -0.024312
H      0.162596    -0.346116    -0.211166
H      0.874694     0.728011     1.038139
C      0.292797     2.129982    -1.844870
H     -0.087844     1.420304    -2.593018
H      0.036433     3.153364    -2.125712
C     -0.270942     1.786916    -0.463553
H     -1.335197     1.524283    -0.472431
O     -0.051171     2.866567     0.449590
P     -1.210079     4.068171     0.560326
O     -0.787064     4.980975     1.685946
O     -2.569317     3.422847     0.421616
O     -0.900444     4.872843    -0.899998
C     -0.523908     6.237041    -0.824972
H     -0.875815     6.696921    -1.760059
H     -1.003320     6.749640     0.017989
C      0.995794     6.402423    -0.690677
H      1.291835     6.253336     0.350259
O      1.718133     5.413725    -1.449490
C      1.599904     5.805711    -2.818619
H      2.449758     5.367566    -3.350984
H      0.671025     5.398982    -3.243303
C      1.595403     7.351763    -2.821385
H      0.754893     7.743267    -3.404403
H      2.514083     7.758669    -3.256908
C      1.471410     7.713306    -1.325413
H      0.779885     8.545982    -1.145157
H      2.446831     7.989379    -0.911007
