32
Energy = -1142.574102064 Hartree (EUMP2 CORRECTED)
O      1.093879    -0.233459    -0.720565
C      1.888525     0.910788    -1.120105
H      2.657518     0.539654    -1.805146
H      2.358523     1.371496    -0.244108
C     -0.265091     0.212121    -0.521621
H     -0.911516    -0.342106    -1.217328
H     -0.570622     0.006369     0.509505
C      0.892529     1.866565    -1.750754
H      0.600330     1.514461    -2.749859
H      1.258648     2.893121    -1.815477
C     -0.299422     1.712815    -0.801327
H     -1.244364     2.050231    -1.247770
O     -0.102938     2.367640     0.455817
P      0.293783     4.008700     0.428994
O     -0.735445     4.699035    -0.447947
O      1.779793     4.189684     0.249020
O     -0.029857     4.289105     2.031816
C     -1.398559     4.319115     2.449679
H     -1.532834     3.549405     3.220617
H     -2.066077     4.111036     1.603284
C     -1.733986     5.684560     3.024680
H     -2.805142     5.700146     3.271512
O     -1.048184     5.936154     4.266468
C      0.249970     6.485514     3.942067
H      0.498115     7.177686     4.754651
H      0.987447     5.677505     3.907470
C      0.116416     7.169223     2.568145
H      0.845291     6.758232     1.866002
H      0.276032     8.251586     2.639837
C     -1.320474     6.843353     2.114764
H     -1.369308     6.566676     1.056871
H     -1.986075     7.695300     2.299470
