32
Energy = -1142.566401229 Hartree (EUMP2 CORRECTED)
O      1.410110     0.034886     0.146610
C      2.084858     1.177097    -0.426123
H      2.980400     0.795063    -0.925537
H      2.373449     1.880929     0.365361
C      0.003834     0.363694     0.246975
H     -0.557292    -0.459056    -0.214389
H     -0.280209     0.462176     1.300178
C      1.050674     1.795317    -1.350123
H      0.942169     1.183783    -2.256113
H      1.232131     2.835059    -1.631390
C     -0.206027     1.691789    -0.486935
H     -1.119050     1.713587    -1.089239
O     -0.209609     2.734219     0.494496
P     -0.980925     4.186543     0.117164
O     -1.035710     4.273048    -1.394758
O     -0.432310     5.248939     1.026393
O     -2.542058     3.868796     0.668955
C     -3.105175     2.570612     0.686412
H     -2.457383     1.865340     1.223331
H     -3.268146     2.200261    -0.341874
C     -4.449838     2.651115     1.390269
H     -4.972011     1.694029     1.254529
O     -4.316110     2.820460     2.810552
C     -4.143991     4.235197     3.060521
H     -4.576615     4.422342     4.049207
H     -3.077865     4.478743     3.066906
C     -4.870103     4.972688     1.918667
H     -4.187659     5.672947     1.433148
H     -5.743143     5.525334     2.285114
C     -5.285339     3.854383     0.941714
H     -5.088046     4.122885    -0.100815
H     -6.350259     3.616324     1.050145
