32
Energy = -1142.567128320 Hartree (EUMP2 CORRECTED)
O      0.522031    -0.225742     0.668060
C      1.615884     0.476958     0.043611
H      2.327067    -0.282375    -0.295914
H      2.103365     1.142902     0.768178
C     -0.646659     0.625219     0.576980
H     -1.464881     0.010211     0.183154
H     -0.911191     1.007735     1.568259
C      0.960387     1.281595    -1.065987
H      0.685768     0.619070    -1.898315
H      1.561821     2.116501    -1.433626
C     -0.295047     1.791842    -0.352232
H     -1.118966     2.047510    -1.028988
O      0.025490     2.922241     0.464109
P     -0.240021     4.446904    -0.184711
O      0.090988     5.430617     0.900887
O     -1.542026     4.421571    -0.964906
O      1.008385     4.471293    -1.325328
C      0.665805     4.625775    -2.703162
H     -0.216137     4.027212    -2.959147
H      1.533748     4.269374    -3.269875
C      0.440202     6.093482    -3.062262
H      0.955512     6.712852    -2.313675
O      1.050121     6.324336    -4.370073
C      0.289576     7.314182    -5.088282
H      0.963903     8.125283    -5.390673
H     -0.116959     6.843998    -5.994583
C     -0.825148     7.771274    -4.144884
H     -1.735525     8.062076    -4.681678
H     -0.496467     8.628613    -3.545056
C     -1.000170     6.543932    -3.253901
H     -1.558145     5.755777    -3.774920
H     -1.503961     6.730453    -2.302617
