32
Energy = -1142.564977257 Hartree (EUMP2 CORRECTED)
O      1.978712    -0.177644     0.242126
C      2.374522     1.020168    -0.447190
H      3.303247     0.788510    -0.978439
H      2.533181     1.830601     0.275113
C      0.572007    -0.035255     0.544654
H      0.103348    -1.001751     0.324660
H      0.441413     0.203343     1.601940
C      1.181697     1.304807    -1.348514
H      1.162129     0.576505    -2.170643
H      1.141351     2.320026    -1.754733
C      0.013111     1.067677    -0.385354
H     -0.887140     0.712507    -0.903215
O     -0.345479     2.318997     0.207920
P     -0.211566     2.700082     1.842541
O      1.216021     2.409064     2.271499
O     -1.415243     2.207866     2.602167
O     -0.385414     4.339404     1.630874
C      0.694316     5.059445     1.032214
H      0.318566     5.537085     0.117630
H      1.519530     4.380770     0.779173
C      1.204552     6.120267     1.992327
H      2.075205     6.609918     1.533108
O      0.240998     7.169733     2.207395
C     -0.633240     6.743856     3.277896
H     -0.924656     7.655108     3.812522
H     -1.521215     6.265847     2.852415
C      0.166879     5.750753     4.141965
H     -0.361416     4.797488     4.214277
H      0.326680     6.136686     5.155688
C      1.501728     5.576327     3.391280
H      1.825416     4.531139     3.359503
H      2.286701     6.188551     3.851792
