32
Energy = -1142.565220587 Hartree (EUMP2 CORRECTED)
O      1.395042     0.140452     0.216755
C      1.813213     1.312282    -0.513892
H      2.649642     1.006619    -1.149975
H      2.142755     2.097413     0.179321
C      0.009425     0.339335     0.582164
H     -0.531088    -0.577172     0.315552
H     -0.073890     0.523843     1.658957
C      0.569222     1.754363    -1.265097
H      0.383638     1.080968    -2.113804
H      0.607625     2.796041    -1.597497
C     -0.505740     1.561760    -0.188862
H     -1.509113     1.381384    -0.585150
O     -0.524514     2.652557     0.731884
P     -1.096393     4.198724     0.384956
O     -0.155123     4.813952    -0.633836
O     -1.475122     4.799463     1.707256
O     -2.549157     3.916731    -0.427705
C     -2.592115     3.467450    -1.776889
H     -1.711005     2.885862    -2.059383
H     -2.634735     4.340355    -2.450001
C     -3.850586     2.636020    -1.956653
H     -3.945173     2.362775    -3.017282
O     -3.748689     1.384198    -1.238111
C     -4.456876     1.550656     0.004857
H     -4.675185     0.545992     0.380090
H     -3.832544     2.097120     0.721244
C     -5.689686     2.354839    -0.389447
H     -6.160134     2.856635     0.463154
H     -6.427053     1.690374    -0.855820
C     -5.114917     3.343126    -1.416491
H     -4.829989     4.278961    -0.928046
H     -5.824899     3.567981    -2.220268
