32
Energy = -1142.561518906 Hartree (EUMP2 CORRECTED)
O      1.452917     0.059484     0.083457
C      1.705508     1.109026    -0.873202
H      2.391423     0.699532    -1.620507
H      2.181063     1.969195    -0.384960
C      0.234649     0.422885     0.771597
H     -0.323503    -0.504560     0.938446
H      0.466159     0.894226     1.734680
C      0.322829     1.462702    -1.394112
H     -0.023193     0.681305    -2.083732
H      0.254662     2.433257    -1.889376
C     -0.517646     1.431203    -0.113969
H     -1.552986     1.139168    -0.312680
O     -0.510993     2.691156     0.575105
P     -1.565237     3.883889     0.006780
O     -1.970385     4.682607     1.219183
O     -2.518300     3.267519    -0.989213
O     -0.497566     4.824964    -0.903885
C      0.876477     4.938294    -0.569703
H      1.266757     4.012319    -0.138660
H      0.991883     5.738013     0.180199
C      1.694587     5.293493    -1.814845
H      2.489703     6.002705    -1.536585
O      2.370953     4.087543    -2.295595
C      2.192828     3.958317    -3.715507
H      3.138152     3.605022    -4.142707
H      1.410582     3.212389    -3.919459
C      1.766097     5.338907    -4.196249
H      1.221843     5.307312    -5.146961
H      2.642897     5.987837    -4.318987
C      0.904375     5.794817    -3.021242
H     -0.073635     5.305404    -3.029931
H      0.743453     6.878330    -2.986730
