32
Energy = -1142.559836180 Hartree (EUMP2 CORRECTED)
O      1.184932     0.045052     0.596151
C      2.012898     1.179080     0.259179
H      3.018306     0.789533     0.074006
H      2.039279     1.891348     1.094694
C     -0.183518     0.405264     0.292497
H     -0.620602    -0.429164    -0.270047
H     -0.743450     0.562740     1.220729
C      1.325367     1.787244    -0.950062
H      1.502770     1.160141    -1.834176
H      1.589439     2.824170    -1.173054
C     -0.140351     1.705652    -0.519454
H     -0.809764     1.700030    -1.383491
O     -0.431108     2.796016     0.362873
P     -1.264088     4.118783    -0.262960
O     -0.542596     4.572815    -1.511475
O     -1.595715     5.000877     0.911263
O     -2.716900     3.434499    -0.788568
C     -3.173408     2.099088    -0.741704
H     -2.661038     1.516438     0.034059
H     -3.019793     1.613259    -1.721921
C     -4.662087     2.100731    -0.418160
H     -5.064723     1.099701    -0.629144
O     -4.910860     2.334453     0.974302
C     -4.894917     3.771215     1.179463
H     -5.579777     3.960442     2.012966
H     -3.885392     4.100500     1.441614
C     -5.354644     4.401437    -0.149498
H     -4.620930     5.138007    -0.482855
H     -6.329032     4.893995    -0.048765
C     -5.429109     3.216997    -1.134576
H     -4.988544     3.459890    -2.106784
H     -6.467530     2.899186    -1.286902
