32
Energy = -1142.568935991 Hartree (EUMP2 CORRECTED)
O      1.617516     0.038929    -0.064437
C      1.872840     1.016350    -1.097312
H      2.549884     0.546036    -1.817585
H      2.352566     1.904521    -0.665350
C      0.295456     0.293559     0.470863
H     -0.281054    -0.636665     0.385169
H      0.372425     0.588594     1.522228
C      0.498845     1.360825    -1.645541
H      0.129475     0.545552    -2.282547
H      0.454799     2.308581    -2.187151
C     -0.318607     1.422582    -0.354261
H     -1.395384     1.306621    -0.518166
O     -0.069611     2.644129     0.353342
P     -0.926215     4.005152    -0.103003
O     -0.807098     5.012071     1.014989
O     -2.236275     3.580660    -0.729850
O      0.145028     4.463749    -1.326390
C      0.021707     5.793856    -1.833469
H     -0.600922     6.412088    -1.176316
H     -0.461235     5.740699    -2.819830
C      1.408005     6.462157    -1.956189
H      1.541085     6.880342    -2.960934
O      1.521530     7.590750    -1.063886
C      1.763803     7.020863     0.248138
H      2.312852     7.781390     0.811916
H      0.810741     6.801694     0.741736
C      2.555573     5.717848     0.013754
H      2.035116     4.876452     0.477718
H      3.570970     5.774469     0.423024
C      2.571780     5.571742    -1.518218
H      2.460270     4.533896    -1.841622
H      3.495155     5.986648    -1.941072
