32
Energy = -1142.558707749 Hartree (EUMP2 CORRECTED)
O      1.367321     0.205049     0.689631
C      1.775247     0.757062    -0.577202
H      2.404232     0.003956    -1.062173
H      2.360098     1.673189    -0.418156
C      0.132650     0.863339     1.068137
H     -0.564022     0.078309     1.384577
H      0.314596     1.555802     1.897266
C      0.467507     1.055536    -1.292049
H      0.017797     0.118715    -1.646903
H      0.538234     1.754571    -2.129860
C     -0.372032     1.638883    -0.153608
H     -1.445591     1.517100    -0.327369
O     -0.078963     3.024697     0.066008
P     -0.874463     4.144442    -0.929929
O     -1.053668     5.364372    -0.057213
O     -1.969759     3.437608    -1.687328
O      0.345903     4.498989    -2.035468
C      1.696527     4.429850    -1.619474
H      1.761329     4.458644    -0.524460
H      2.157938     3.485218    -1.948003
C      2.509819     5.589705    -2.219850
H      2.830394     5.352815    -3.240048
O      1.772129     6.806858    -2.319759
C      1.628627     7.282005    -0.965045
H      1.488717     8.364966    -1.031973
H      0.742329     6.823853    -0.510389
C      2.937185     6.875085    -0.245722
H      2.716682     6.340252     0.683815
H      3.553241     7.743901     0.010489
C      3.653093     5.964992    -1.268865
H      4.131379     5.092870    -0.805023
H      4.419323     6.522507    -1.819225
