32
Energy = -1142.556262622 Hartree (EUMP2 CORRECTED)
O      1.989153     1.019150    -0.846612
C      2.199182     2.426880    -0.629073
H      3.122894     2.697470    -1.150492
H      2.296493     2.637416     0.444326
C      0.560936     0.766670    -0.725457
H      0.240592     0.261469    -1.646417
H      0.380049     0.127093     0.135952
C      0.941097     3.069058    -1.189088
H      0.948316     3.014636    -2.286281
H      0.772340     4.099811    -0.865293
C     -0.126140     2.138920    -0.611823
H     -1.056742     2.150087    -1.201188
O     -0.420539     2.624990     0.689159
P     -0.795986     1.951277     2.184033
O     -2.221853     2.343233     2.498100
O      0.383809     2.198548     3.086510
O     -0.770222     0.300562     1.858329
C     -1.965041    -0.327159     1.397090
H     -2.009802    -0.298095     0.296525
H     -2.844940     0.190710     1.801545
C     -1.927257    -1.770981     1.859327
H     -2.841120    -2.278718     1.519560
O     -0.828173    -2.475994     1.233120
C      0.242774    -2.526727     2.194367
H      0.912696    -3.331757     1.876428
H      0.779439    -1.571165     2.210473
C     -0.467942    -2.783519     3.517556
H      0.145012    -2.523046     4.387398
H     -0.744832    -3.842692     3.586991
C     -1.714932    -1.896548     3.384224
H     -1.528234    -0.906623     3.810139
H     -2.591638    -2.328957     3.878952
