32
Energy = -1142.570406364 Hartree (EUMP2 CORRECTED)
O      1.286290     0.076799     0.616984
C      1.854621     1.002738    -0.335547
H      2.639346     0.462288    -0.874434
H      2.290828     1.862942     0.187903
C     -0.093746     0.453455     0.825871
H     -0.712592    -0.431129     0.624731
H     -0.237048     0.779604     1.861414
C      0.682092     1.439662    -1.194514
H      0.403599     0.640135    -1.895046
H      0.862636     2.375507    -1.729492
C     -0.414476     1.600632    -0.134686
H     -1.427064     1.534207    -0.551526
O     -0.277411     2.815651     0.609974
P     -0.558823     4.295139    -0.140987
O      0.489787     4.549197    -1.206033
O     -0.905788     5.254908     0.961565
O     -1.982777     3.870759    -0.946644
C     -1.993609     3.801582    -2.367429
H     -1.290918     3.043026    -2.735172
H     -1.711039     4.767915    -2.810882
C     -3.404510     3.426055    -2.778816
H     -3.458115     3.389952    -3.876163
O     -3.720272     2.086317    -2.324143
C     -4.534618     2.217955    -1.146633
H     -5.057813     1.265387    -1.015351
H     -3.902716     2.427167    -0.275000
C     -5.445403     3.397704    -1.462405
H     -5.901182     3.837397    -0.568260
H     -6.244069     3.074058    -2.140966
C     -4.476661     4.356283    -2.169340
H     -4.005821     5.024816    -1.442777
H     -4.970867     4.962311    -2.936837
