32
Energy = -1142.575241453 Hartree (EUMP2 CORRECTED)
O      1.243485     0.049668     0.482382
C      1.673081     0.934284    -0.581050
H      2.434305     0.395350    -1.154326
H      2.115292     1.845346    -0.163044
C     -0.153799     0.312580     0.751664
H     -0.707121    -0.624646     0.600675
H     -0.271963     0.649806     1.786485
C      0.405349     1.250136    -1.354447
H      0.120108     0.397791    -1.986897
H      0.466849     2.152251    -1.964781
C     -0.609689     1.398387    -0.220016
H     -1.642820     1.267620    -0.561377
O     -0.484091     2.648756     0.467539
P     -0.919482     4.051624    -0.360138
O     -1.216463     5.084067     0.697090
O     -1.813566     3.674559    -1.515547
O      0.571334     4.424676    -1.052107
C      1.581453     4.904743    -0.167071
H      1.867433     4.121005     0.548088
H      1.210714     5.772302     0.398268
C      2.779240     5.299303    -1.007755
H      3.564124     5.689575    -0.344602
O      3.355789     4.139622    -1.659472
C      2.917961     4.159710    -3.027201
H      3.608103     3.524284    -3.591517
H      1.896708     3.766927    -3.101426
C      2.966305     5.634798    -3.405389
H      2.372704     5.868275    -4.296482
H      4.005799     5.933757    -3.587546
C      2.417498     6.294265    -2.132911
H      1.329589     6.391741    -2.192465
H      2.848401     7.285188    -1.951793
