32
Energy = -1142.554851529 Hartree (EUMP2 CORRECTED)
O      1.690035     0.469624     1.339174
C      2.389530     1.527025     0.660216
H      3.450899     1.260321     0.660986
H      2.245931     2.481625     1.184126
C      0.321830     0.479525     0.859706
H      0.066168    -0.554262     0.597766
H     -0.353798     0.845666     1.638721
C      1.746462     1.574115    -0.717818
H      2.085871     0.719550    -1.318661
H      1.933850     2.506392    -1.257373
C      0.268470     1.427307    -0.352471
H     -0.349509     0.993420    -1.142260
O     -0.222406     2.695078     0.061037
P     -1.654314     3.417186    -0.477402
O     -1.316358     4.887253    -0.567557
O     -2.814153     2.846999     0.297035
O     -1.867952     2.839858    -2.051590
C     -0.851156     2.464497    -2.966238
H     -0.925582     1.387445    -3.171838
H      0.152691     2.694644    -2.584371
C     -1.045848     3.236536    -4.263249
H     -0.251010     2.948442    -4.967638
O     -2.287702     2.860640    -4.899318
C     -3.256514     3.868681    -4.549961
H     -4.067944     3.789764    -5.280575
H     -3.636599     3.685300    -3.538992
C     -2.469973     5.171723    -4.621159
H     -2.941471     5.982958    -4.056139
H     -2.369339     5.483050    -5.668409
C     -1.111218     4.762490    -4.030350
H     -1.076685     4.986299    -2.958540
H     -0.276985     5.276426    -4.521744
