32
Energy = -1142.573792932 Hartree (EUMP2 CORRECTED)
O      0.920749    -0.348819    -0.808302
C      1.637240     0.777565    -1.365151
H      2.238827     0.390199    -2.193303
H      2.292410     1.220988    -0.605324
C     -0.319724     0.146999    -0.251837
H     -1.140131    -0.419293    -0.712302
H     -0.326276    -0.006165     0.832671
C      0.550570     1.757902    -1.771392
H      0.052997     1.419460    -2.690307
H      0.905038     2.784629    -1.898205
C     -0.401954     1.635947    -0.579647
H     -1.419504     1.978056    -0.802359
O      0.109520     2.348497     0.549881
P     -0.049734     4.032605     0.503349
O     -1.393906     4.319456    -0.143566
O      1.238789     4.670460     0.056760
O     -0.167018     4.254891     2.146618
C     -1.246291     3.617139     2.833058
H     -0.826236     2.851166     3.497213
H     -1.936421     3.141443     2.122909
C     -2.007570     4.651333     3.644450
H     -2.833736     4.145414     4.164557
O     -1.177917     5.210588     4.688469
C     -0.626716     6.435142     4.168506
H     -0.294760     7.020341     5.032338
H      0.221805     6.214110     3.512332
C     -1.781865     7.063622     3.395229
H     -1.440250     7.773690     2.634257
H     -2.445593     7.591336     4.090996
C     -2.488077     5.840623     2.783206
H     -2.201807     5.686605     1.738614
H     -3.578649     5.940731     2.824384
