32
Energy = -1142.555856742 Hartree (EUMP2 CORRECTED)
O      1.410134     0.751815    -1.065895
C      1.935438     2.085163    -0.863032
H      2.803175     2.191689    -1.522750
H      2.236973     2.213460     0.184007
C     -0.025134     0.801813    -0.898470
H     -0.489498     0.561484    -1.867335
H     -0.320622     0.062872    -0.157110
C      0.770140     3.000100    -1.205763
H      0.863368     4.009623    -0.796153
H      0.625565     3.046567    -2.294584
C     -0.384491     2.245134    -0.534953
H     -1.364134     2.509769    -0.955709
O     -0.430529     2.630197     0.830385
P      0.096711     2.002987     2.296936
O     -1.085494     2.025191     3.235571
O      1.433904     2.641644     2.590237
O      0.439723     0.408269     1.896068
C     -0.457515    -0.607020     2.346767
H     -1.325685    -0.685027     1.674257
H     -0.830273    -0.369174     3.351335
C      0.298319    -1.921494     2.350153
H     -0.363713    -2.703636     2.749130
O      0.623670    -2.331580     1.001277
C      2.006713    -1.985681     0.776263
H      2.346385    -2.592789    -0.069181
H      2.088658    -0.923481     0.525460
C      2.680247    -2.321089     2.100877
H      3.650003    -1.825511     2.222681
H      2.828423    -3.405640     2.177406
C      1.636337    -1.836124     3.117653
H      1.830389    -0.796241     3.396332
H      1.620413    -2.446738     4.027481
