32
Energy = -1142.572300710 Hartree (EUMP2 CORRECTED)
O      1.000732     0.334400     1.605856
C      1.699198     0.762123     0.416364
H      2.558363     0.094982     0.292221
H      2.051242     1.794187     0.541813
C     -0.406651     0.615999     1.421102
H     -0.953468    -0.330982     1.525786
H     -0.741733     1.325306     2.184111
C      0.661625     0.667991    -0.687039
H      0.481555    -0.387427    -0.935442
H      0.901295     1.223884    -1.593952
C     -0.577960     1.217996     0.024496
H     -1.514105     0.912731    -0.461592
O     -0.576785     2.638711     0.199109
P     -0.744162     3.683264    -1.110639
O     -0.536264     5.064877    -0.542476
O     -1.928605     3.228942    -1.929054
O      0.581388     3.288321    -2.068228
C      1.844781     3.899924    -1.801585
H      2.577076     3.104860    -1.600495
H      1.778243     4.568596    -0.932958
C      2.285953     4.684872    -3.025641
H      3.283411     5.105923    -2.832431
O      2.445592     3.802663    -4.161680
C      1.237160     3.903269    -4.940482
H      1.477718     3.528738    -5.940829
H      0.446930     3.296271    -4.485350
C      0.891511     5.386637    -4.892192
H     -0.162370     5.581529    -5.118350
H      1.512594     5.933325    -5.612550
C      1.262945     5.762076    -3.448567
H      0.392489     5.731691    -2.787859
H      1.696481     6.766391    -3.383358
