32
Energy = -1142.568032680 Hartree (EUMP2 CORRECTED)
O      0.777531    -0.052782    -1.912684
C      1.886199     0.868202    -2.020438
H      2.355304     0.684650    -2.991731
H      2.597723     0.688255    -1.207156
C      0.008800     0.457144    -0.809296
H     -0.988381     0.012104    -0.877775
H      0.481032     0.202004     0.145889
C      1.251609     2.250678    -1.874748
H      1.921085     2.983763    -1.416734
H      0.934204     2.632323    -2.852562
C      0.010425     1.988562    -0.985061
H     -0.896187     2.303372    -1.514212
O     -0.057662     2.701442     0.249720
P      1.281042     2.824338     1.268552
O      1.717000     4.273725     1.271531
O      2.216877     1.668656     1.007524
O      0.498361     2.493381     2.700654
C     -0.382642     3.480831     3.242909
H     -1.397318     3.062249     3.254827
H     -0.368905     4.393046     2.631601
C      0.052042     3.819952     4.658455
H     -0.645014     4.565571     5.067531
O     -0.059198     2.667341     5.525417
C      1.247289     2.064267     5.584225
H      1.258153     1.427269     6.474761
H      1.422456     1.463209     4.685615
C      2.200865     3.252418     5.654050
H      3.214181     2.997611     5.325007
H      2.251580     3.622693     6.685349
C      1.524280     4.282298     4.732855
H      1.965851     4.285672     3.732256
H      1.597789     5.298575     5.136249
