32
Energy = -1142.555408511 Hartree (EUMP2 CORRECTED)
O      0.539670    -0.873067     0.174621
C     -0.401777    -0.793167    -0.922460
H     -0.771220    -1.808747    -1.097070
H      0.103112    -0.422741    -1.822923
C      0.473939     0.370711     0.911859
H      0.201730     0.133415     1.949359
H      1.451714     0.863155     0.889731
C     -1.457548     0.195208    -0.459067
H     -2.132631    -0.275494     0.268647
H     -2.034569     0.636571    -1.276256
C     -0.582231     1.239672     0.237537
H     -1.135604     1.873424     0.941052
O      0.090675     2.058502    -0.721509
P     -0.871170     3.231046    -1.483468
O     -1.753742     3.874208    -0.440276
O     -1.417994     2.627218    -2.759088
O      0.374862     4.276888    -1.872925
C      1.734384     3.857115    -1.820580
H      2.067204     3.721408    -0.784910
H      1.854416     2.901727    -2.349024
C      2.581003     4.932380    -2.485321
H      1.904671     5.645808    -2.982865
O      3.363777     5.638418    -1.498188
C      4.284959     6.430805    -2.250728
H      3.811544     7.386215    -2.524833
H      5.139878     6.637386    -1.600571
C      4.639899     5.609341    -3.515064
H      5.680647     5.269458    -3.502758
H      4.499293     6.209133    -4.421025
C      3.647444     4.434894    -3.458757
H      4.121160     3.541637    -3.034617
H      3.226295     4.168365    -4.433875
