32
Energy = -1142.565801719 Hartree (EUMP2 CORRECTED)
O      1.707260    -0.148776     0.028337
C      1.029948    -0.094023    -1.249430
H      1.130245    -1.085107    -1.702816
H      1.503552     0.657178    -1.893518
C      1.040214     0.769248     0.925600
H      0.716681     0.200268     1.807470
H      1.734829     1.559310     1.230032
C     -0.395276     0.309993    -0.914481
H     -0.945213    -0.542130    -0.492374
H     -0.945249     0.732317    -1.760031
C     -0.145272     1.361336     0.168928
H     -1.015657     1.547824     0.809740
O      0.293394     2.592649    -0.413718
P     -0.921089     3.535807    -1.120437
O     -2.085961     3.615200    -0.162655
O     -1.082031     3.106877    -2.565317
O     -0.095963     4.983376    -1.099436
C      1.308305     5.107354    -0.885117
H      1.835356     4.171166    -1.092968
H      1.477840     5.378980     0.169194
C      1.860099     6.204537    -1.790234
H      2.796762     6.581177    -1.358167
O      2.214470     5.701953    -3.090909
C      0.979973     5.627679    -3.846054
H      1.266120     5.704420    -4.900116
H      0.483241     4.669338    -3.663237
C      0.112971     6.801740    -3.352504
H     -0.890669     6.448747    -3.105811
H      0.033547     7.590877    -4.109538
C      0.844735     7.312532    -2.094048
H      0.160222     7.484972    -1.258156
H      1.385587     8.242171    -2.307880
