32
Energy = -1142.572916471 Hartree (EUMP2 CORRECTED)
O      1.692660     0.224315    -1.124788
C      2.141194     1.594525    -1.227909
H      2.928296     1.611924    -1.988073
H      2.545865     1.932820    -0.265722
C      0.310247     0.244580    -0.694436
H     -0.267105    -0.351045    -1.413535
H      0.225918    -0.194413     0.305114
C      0.888278     2.373827    -1.588565
H      0.625327     2.205260    -2.641709
H      0.946442     3.448144    -1.396885
C     -0.137866     1.706235    -0.672416
H     -1.167383     1.850105    -1.017231
O      0.011221     2.176177     0.668829
P     -0.711585     3.642604     1.084301
O     -1.550180     4.086910    -0.100986
O      0.320256     4.498880     1.766371
O     -1.730151     3.106260     2.294559
C     -3.052401     2.677569     1.968994
H     -3.190907     1.666527     2.375681
H     -3.199935     2.664808     0.880814
C     -4.071767     3.615643     2.594636
H     -5.074720     3.296142     2.276824
O     -4.076590     3.531813     4.032315
C     -3.065914     4.442829     4.525598
H     -3.441813     4.822330     5.482608
H     -2.132222     3.895192     4.686645
C     -2.884600     5.536098     3.455823
H     -1.842620     5.581475     3.130864
H     -3.174973     6.522786     3.835898
C     -3.800257     5.092038     2.297915
H     -3.333234     5.231190     1.317961
H     -4.750647     5.639055     2.324596
