32
Energy = -1142.572024259 Hartree (EUMP2 CORRECTED)
O      1.443487    -0.100131     0.067740
C      1.984770     0.964525    -0.741857
H      2.814778     0.537240    -1.313348
H      2.357771     1.774937    -0.101190
C      0.046927     0.200530     0.311610
H     -0.531631    -0.688263     0.030781
H     -0.106552     0.425627     1.372018
C      0.809054     1.437857    -1.579432
H      0.599738     0.712454    -2.377447
H      0.923367     2.438533    -2.002798
C     -0.314990     1.417531    -0.541431
H     -1.315717     1.351824    -0.982107
O     -0.240483     2.574184     0.302356
P     -1.104892     3.931221    -0.151674
O     -1.116952     4.869118     1.028247
O     -2.339082     3.514770    -0.923523
O      0.045551     4.486371    -1.259006
C     -0.263126     5.698819    -1.948715
H     -0.974298     6.313363    -1.381948
H     -0.710501     5.449031    -2.923652
C      1.020299     6.498199    -2.151587
H      0.886853     7.184068    -2.998451
O      1.323501     7.337014    -1.024635
C      1.915737     6.468518    -0.029439
H      2.534058     7.112250     0.604399
H      1.125241     6.003677     0.568644
C      2.722316     5.417737    -0.819348
H      2.482200     4.412809    -0.464667
H      3.802133     5.579631    -0.718181
C      2.265494     5.611995    -2.281108
H      2.049670     4.662637    -2.781131
H      3.026196     6.149466    -2.859749
