32
Energy = -1142.567977024 Hartree (EUMP2 CORRECTED)
O      0.127714    -0.121228    -0.002339
C      1.033030     0.612292    -0.861293
H      1.394340    -0.093945    -1.615249
H      1.877840     0.995653    -0.276303
C     -0.872170     0.803584     0.485276
H     -1.858369     0.413344     0.199846
H     -0.806524     0.876460     1.576377
C      0.200128     1.757758    -1.410500
H     -0.482501     1.397535    -2.191997
H      0.793192     2.594427    -1.790302
C     -0.590247     2.155730    -0.162466
H     -1.496902     2.729286    -0.389354
O      0.238889     2.895011     0.737629
P      0.507813     4.521730     0.343079
O     -0.789376     5.052419    -0.239878
O      1.829899     4.659531    -0.367234
O      0.687665     5.089969     1.898349
C      0.328971     4.416028     3.100512
H      1.086882     4.701077     3.841101
H      0.353021     3.327901     2.960635
C     -1.038328     4.836058     3.622615
H     -1.182173     4.351559     4.600694
O     -1.072294     6.256936     3.878922
C     -1.725442     6.863837     2.745363
H     -2.045632     7.860341     3.066532
H     -1.029426     6.938325     1.903324
C     -2.866563     5.907393     2.424414
H     -3.228051     6.018469     1.397147
H     -3.696882     6.071836     3.122977
C     -2.205294     4.540086     2.654427
H     -1.829342     4.157782     1.704650
H     -2.898486     3.805625     3.081435
