32
Energy = -1142.570374230 Hartree (EUMP2 CORRECTED)
O      2.177009     0.974003     0.999673
C      2.051986     2.365768     0.627344
H      3.066466     2.740024     0.458059
H      1.577494     2.933728     1.437074
C      0.974405     0.292861     0.571740
H      1.278815    -0.554326    -0.056943
H      0.421841    -0.071242     1.444092
C      1.164651     2.355792    -0.605373
H      1.730373     2.012899    -1.482590
H      0.694867     3.321261    -0.810560
C      0.130209     1.301485    -0.206750
H     -0.381658     0.855060    -1.065521
O     -0.833882     1.830240     0.709510
P     -1.923614     3.003637     0.223937
O     -1.270144     4.371516     0.239854
O     -3.227600     2.709448     0.923760
O     -2.011368     2.517309    -1.389974
C     -2.275407     3.490750    -2.398825
H     -1.497987     3.390805    -3.168921
H     -2.225804     4.505402    -1.980820
C     -3.631305     3.234550    -3.034474
H     -3.781979     3.971371    -3.837908
O     -3.639861     1.938643    -3.684337
C     -4.348079     1.039178    -2.812600
H     -4.655362     0.184100    -3.423609
H     -3.689537     0.709022    -2.000236
C     -5.497569     1.880718    -2.276293
H     -5.941590     1.465909    -1.364943
H     -6.276790     1.970604    -3.043760
C     -4.799109     3.224403    -2.024908
H     -4.423878     3.255363    -0.997490
H     -5.466434     4.080087    -2.178215
