32
Energy = -1142.568052719 Hartree (EUMP2 CORRECTED)
O      1.972978     0.860201     1.192014
C      1.968985     2.243147     0.770994
H      3.015952     2.551347     0.689356
H      1.455356     2.864674     1.514867
C      0.768994     0.240749     0.681206
H      1.069999    -0.650352     0.114911
H      0.116971    -0.048699     1.511714
C      1.202185     2.240666    -0.540430
H      1.825343     1.835221    -1.349343
H      0.815743     3.222276    -0.825386
C      0.068446     1.268469    -0.208129
H     -0.388038     0.819351    -1.096154
O     -0.926983     1.902964     0.595857
P     -1.973606     3.051902    -0.030042
O     -1.434960     4.439656     0.248561
O     -3.379837     2.630475     0.324640
O     -1.678352     2.717294    -1.658373
C     -1.797150     3.770882    -2.612484
H     -0.859584     3.811770    -3.184300
H     -1.941520     4.736480    -2.109260
C     -2.942872     3.482678    -3.567206
H     -2.979146     4.285728    -4.318764
O     -2.679169     2.264201    -4.308013
C     -3.479713     1.229549    -3.709790
H     -3.557728     0.424105    -4.447427
H     -2.995906     0.862740    -2.796363
C     -4.795041     1.925131    -3.388567
H     -5.394795     1.384404    -2.648440
H     -5.383272     2.041448    -4.307654
C     -4.300979     3.279763    -2.862201
H     -4.169180     3.226627    -1.776949
H     -4.994632     4.097214    -3.089455
