32
Energy = -1142.563090806 Hartree (EUMP2 CORRECTED)
O      1.283368     0.126003     0.666518
C      1.800527     0.790948    -0.502031
H      2.481949     0.087438    -0.990535
H      2.355707     1.692434    -0.208262
C      0.020042     0.756806     0.992298
H     -0.695608    -0.048571     1.193693
H      0.132011     1.386693     1.881747
C      0.561260     1.146132    -1.307116
H      0.157921     0.241654    -1.781434
H      0.701822     1.917634    -2.069459
C     -0.388032     1.623572    -0.204968
H     -1.440013     1.505524    -0.483355
O     -0.143819     2.990792     0.151336
P     -0.862531     4.174811    -0.824645
O     -0.977100     5.383543     0.074942
O     -1.981495     3.551746    -1.617952
O      0.391251     4.473083    -1.907314
C      1.685044     4.616107    -1.342906
H      1.601496     4.863294    -0.276368
H      2.249048     3.674088    -1.419126
C      2.476828     5.715852    -2.068909
H      2.936932     5.326117    -2.983341
O      1.664958     6.815160    -2.483096
C      1.322621     7.515757    -1.269147
H      1.096280     8.545494    -1.561017
H      0.438601     7.053338    -0.815165
C      2.565843     7.391603    -0.357251
H      2.278855     7.031073     0.635749
H      3.079323     8.350578    -0.227867
C      3.463280     6.373870    -1.095682
H      3.942015     5.655020    -0.418633
H      4.249808     6.885110    -1.662200
