32
Energy = -1142.574554811 Hartree (EUMP2 CORRECTED)
O      2.132318     0.906615    -0.712787
C      2.135706     2.284371    -1.134020
H      2.901313     2.377684    -1.910936
H      2.383590     2.940104    -0.288882
C      0.799994     0.591852    -0.229040
H      0.465400    -0.307654    -0.762282
H      0.826373     0.400392     0.847801
C      0.712742     2.533338    -1.608283
H      0.553768     2.058066    -2.585230
H      0.429426     3.588204    -1.658672
C     -0.084263     1.808319    -0.527029
H     -1.099028     1.542903    -0.843882
O     -0.132727     2.666004     0.616706
P     -1.540164     2.650341     1.523317
O     -2.728177     2.505249     0.591985
O     -1.384533     3.729311     2.559387
O     -1.320291     1.170974     2.304946
C     -2.213606     0.082886     2.065134
H     -1.605136    -0.811484     1.869651
H     -2.848579     0.298683     1.195588
C     -3.089496    -0.176754     3.279877
H     -3.806896    -0.968771     3.020862
O     -2.336023    -0.688888     4.395305
C     -1.808272     0.449151     5.116976
H     -1.750854     0.141178     6.167057
H     -0.805131     0.680601     4.745303
C     -2.770989     1.623933     4.866220
H     -2.233130     2.487543     4.467420
H     -3.286340     1.922314     5.786908
C     -3.769449     1.082746     3.822911
H     -3.981737     1.809256     3.032073
H     -4.715602     0.798532     4.299269
