32
Energy = -1142.572718943 Hartree (EUMP2 CORRECTED)
O      1.184241    -0.113452    -0.389352
C      1.724071     1.064248     0.251911
H      2.813827     0.978595     0.201290
H      1.404541     1.102268     1.301396
C     -0.123172     0.230804    -0.904531
H     -0.150576    -0.070037    -1.959731
H     -0.898018    -0.304885    -0.345350
C      1.138158     2.225334    -0.531376
H      1.643671     2.318110    -1.502289
H      1.147386     3.184811    -0.006383
C     -0.299483     1.741036    -0.731310
H     -0.797379     2.211691    -1.585016
O     -1.076245     1.941208     0.457745
P     -1.720929     3.457765     0.772955
O     -0.601787     4.437437     1.047202
O     -2.896712     3.250120     1.696969
O     -2.294895     3.739603    -0.792432
C     -3.456349     4.560540    -0.931605
H     -3.206425     5.381599    -1.616494
H     -3.759623     4.979084     0.037510
C     -4.620861     3.772396    -1.507429
H     -5.488660     4.445996    -1.557779
O     -4.376292     3.359608    -2.867956
C     -3.729357     2.069354    -2.835275
H     -4.128820     1.503848    -3.685512
H     -2.650470     2.204171    -2.970812
C     -4.052268     1.430486    -1.471105
H     -3.142808     1.254527    -0.893261
H     -4.577515     0.474964    -1.588142
C     -4.931675     2.475295    -0.761267
H     -4.695575     2.551339     0.304595
H     -5.994861     2.237986    -0.890597
