32
Energy = -1142.564196514 Hartree (EUMP2 CORRECTED)
O      1.317760    -0.041408    -0.040367
C      2.157258     1.055060    -0.459258
H      3.053163     0.612667    -0.905269
H      2.438249     1.671059     0.405388
C     -0.043968     0.450103     0.006669
H     -0.669443    -0.283764    -0.517104
H     -0.370356     0.543389     1.047771
C      1.279966     1.838372    -1.420071
H      1.193579     1.296943    -2.371628
H      1.595892     2.867616    -1.607926
C     -0.053902     1.826956    -0.670907
H     -0.893676     1.979015    -1.352339
O     -0.016873     2.836710     0.338614
P     -1.011057     4.192659     0.220645
O     -1.075560     4.541067    -1.254923
O     -0.620855     5.124040     1.329867
O     -2.533963     3.597412     0.632821
C     -3.061647     2.385525     0.132492
H     -2.544493     1.520353     0.568489
H     -2.982004     2.344546    -0.967420
C     -4.534605     2.328069     0.504566
H     -4.973725     1.426285     0.055529
O     -4.713215     2.180376     1.928298
C     -4.881738     3.507811     2.463468
H     -5.341752     3.390894     3.449734
H     -3.908209     4.000271     2.552270
C     -5.772214     4.206895     1.439785
H     -5.677397     5.297402     1.478287
H     -6.820814     3.941645     1.620234
C     -5.284003     3.619159     0.103003
H     -4.595521     4.304246    -0.399230
H     -6.117179     3.402767    -0.574928
