32
Energy = -1142.562322288 Hartree (EUMP2 CORRECTED)
O      1.727928     0.463795    -1.300523
C      0.524368     0.433792    -2.108928
H      0.525579    -0.515827    -2.654347
H      0.539185     1.266793    -2.821770
C      1.410077     1.072070    -0.027390
H      1.503774     0.309442     0.759594
H      2.113848     1.888326     0.164788
C     -0.625330     0.593201    -1.128032
H     -0.841926    -0.356502    -0.620077
H     -1.536222     0.983070    -1.589715
C     -0.018292     1.582832    -0.132308
H     -0.547386     1.614318     0.827880
O      0.053168     2.896464    -0.690349
P     -1.422727     3.703753    -0.885790
O     -2.262447     3.428200     0.339922
O     -1.924949     3.443679    -2.290240
O     -0.814389     5.255436    -0.827784
C      0.556447     5.606347    -0.658220
H      1.086235     4.835452    -0.090636
H      0.546702     6.531868    -0.069298
C      1.345095     5.842121    -1.973657
H      1.587814     6.909348    -2.054530
O      2.637511     5.184545    -1.891353
C      2.532757     3.979478    -2.675179
H      3.554764     3.647003    -2.881520
H      1.994315     3.207272    -2.113713
C      1.741920     4.421425    -3.897340
H      1.299083     3.583422    -4.447497
H      2.397445     4.982314    -4.575717
C      0.673680     5.327919    -3.264686
H     -0.234446     4.761961    -3.045458
H      0.392578     6.160164    -3.919808
