32
Energy = -1142.561097442 Hartree (EUMP2 CORRECTED)
O      0.717506    -0.518001     0.102282
C      1.781757     0.444758    -0.012182
H      2.694654    -0.116215    -0.234924
H      1.904737     0.994849     0.930722
C     -0.523441     0.182819    -0.164359
H     -1.097584    -0.437130    -0.862590
H     -1.087217     0.320999     0.763929
C      1.317067     1.380185    -1.117395
H      1.426648     0.889388    -2.094558
H      1.827798     2.346959    -1.123892
C     -0.160228     1.554084    -0.751542
H     -0.809041     1.813187    -1.595447
O     -0.266970     2.540430     0.272583
P     -1.066388     3.986148    -0.069118
O     -1.188317     4.704847     1.241048
O     -2.202548     3.665531    -1.022647
O      0.116646     4.795430    -0.965534
C      0.121375     4.610436    -2.370825
H      0.576173     3.640244    -2.631378
H     -0.902212     4.609056    -2.769483
C      0.903931     5.735891    -3.032402
H      0.363166     6.679727    -2.914482
O      2.198314     5.960573    -2.449245
C      3.052183     4.918190    -2.931360
H      4.070963     5.317369    -2.923113
H      3.011113     4.055390    -2.253725
C      2.541685     4.556509    -4.345019
H      2.344227     3.482633    -4.428833
H      3.270532     4.817750    -5.119426
C      1.244637     5.379535    -4.484377
H      0.441462     4.825242    -4.984136
H      1.428133     6.298598    -5.051292
