32
Energy = -1142.570999219 Hartree (EUMP2 CORRECTED)
O      1.867039     1.003908     0.970266
C      2.223411     1.810593    -0.173902
H      3.203632     1.462934    -0.516464
H      2.295723     2.864134     0.124474
C      0.425532     0.850781     0.984269
H      0.204730    -0.224393     0.947150
H      0.020262     1.282691     1.904175
C      1.093737     1.594401    -1.165349
H      1.196790     0.608757    -1.640256
H      0.987517     2.350334    -1.945019
C     -0.121088     1.584921    -0.240009
H     -0.978393     1.067448    -0.687459
O     -0.500507     2.893015     0.193448
P     -1.464725     3.842729    -0.841032
O     -2.794350     4.065636    -0.176733
O     -1.269456     3.299208    -2.242025
O     -0.611618     5.266101    -0.670572
C      0.643209     5.410377    -1.325905
H      0.500200     5.928918    -2.282613
H      1.102572     4.434229    -1.528675
C      1.561789     6.216725    -0.423859
H      2.547692     6.293557    -0.904703
O      1.089576     7.576889    -0.285771
C      0.353854     7.638745     0.950083
H      0.288652     8.696649     1.223975
H     -0.648809     7.219728     0.810036
C      1.182636     6.792138     1.909184
H      0.608360     6.445678     2.775460
H      2.039447     7.375862     2.267593
C      1.642982     5.635601     1.006748
H      0.968733     4.779150     1.097124
H      2.659540     5.305467     1.249109
