32
Energy = -1142.570965853 Hartree (EUMP2 CORRECTED)
O      0.520600    -0.339692     0.206475
C      1.554152     0.664383     0.319548
H      2.503789     0.129779     0.421225
H      1.380470     1.283305     1.209373
C     -0.559941     0.223598    -0.576572
H     -0.752782    -0.459638    -1.413911
H     -1.457582     0.316676     0.042796
C      1.420033     1.491078    -0.947339
H      1.825579     0.938326    -1.805910
H      1.873495     2.483710    -0.908153
C     -0.099914     1.599393    -1.058962
H     -0.438630     1.827865    -2.075496
O     -0.596930     2.562385    -0.125265
P     -0.664341     4.160731    -0.622733
O     -2.097081     4.627215    -0.732898
O      0.334495     4.337914    -1.751530
O     -0.010373     4.751571     0.802837
C     -0.394956     6.058362     1.238308
H     -0.738165     5.972761     2.277802
H     -1.224728     6.437165     0.626767
C      0.779353     7.021202     1.192201
H      0.410269     8.016411     1.479047
O      1.787198     6.691590     2.169399
C      2.675142     5.724890     1.564244
H      3.662327     5.901021     2.006338
H      2.335848     4.714371     1.815203
C      2.626094     5.965312     0.044388
H      2.339043     5.060441    -0.495432
H      3.592781     6.312804    -0.339282
C      1.533002     7.034928    -0.139648
H      0.890375     6.798845    -0.993072
H      1.976269     8.027196    -0.287697
