32
Energy = -1142.573103089 Hartree (EUMP2 CORRECTED)
O      0.903064    -0.399845     0.562892
C      1.677426     0.289424    -0.438592
H      2.347125    -0.449679    -0.890617
H      2.270219     1.088370     0.025944
C     -0.394503     0.246751     0.657975
H     -1.159258    -0.518120     0.468434
H     -0.530583     0.670415     1.656746
C      0.642026     0.871930    -1.387971
H      0.233549     0.082470    -2.032664
H      1.006045     1.700248    -2.001790
C     -0.414258     1.353525    -0.397426
H     -1.400136     1.496921    -0.854648
O      0.060260     2.578032     0.166826
P     -1.125661     3.732746     0.501277
O     -1.755214     3.384110     1.836804
O     -1.931610     3.988915    -0.748394
O     -0.081668     5.009000     0.690782
C      0.642065     5.125199     1.920671
H      1.713160     5.137558     1.680433
H      0.421175     4.276184     2.580282
C      0.262417     6.416440     2.624860
H      0.785547     6.447602     3.591191
O      0.711078     7.581467     1.904956
C     -0.309535     7.913817     0.935687
H     -0.290825     9.005208     0.837244
H     -0.061209     7.452534    -0.025356
C     -1.642191     7.366465     1.481291
H     -2.100246     6.688552     0.757506
H     -2.351313     8.174552     1.696424
C     -1.249098     6.609305     2.765138
H     -1.772767     5.652980     2.861064
H     -1.448241     7.223386     3.651821
