32
Energy = -1142.571691138 Hartree (EUMP2 CORRECTED)
O     -0.019028    -0.651778    -0.068015
C      1.199691     0.014159    -0.472781
H      1.880387    -0.764122    -0.831887
H      1.647527     0.528874     0.386876
C     -1.116067     0.272734    -0.263599
H     -1.852008    -0.217327    -0.914692
H     -1.574691     0.513236     0.700756
C      0.759430     1.012096    -1.528942
H      0.544205     0.493901    -2.473753
H      1.450519     1.838277    -1.710649
C     -0.535738     1.531969    -0.906826
H     -1.219341     1.976733    -1.641181
O     -0.247876     2.456010     0.145396
P     -0.075634     4.077299    -0.292879
O     -1.391877     4.784390    -0.046286
O      0.670912     4.143560    -1.604644
O      1.002026     4.488510     0.905128
C      0.525721     4.966574     2.164788
H      0.936100     4.314500     2.946650
H     -0.571284     4.941456     2.197740
C      1.008648     6.390676     2.385721
H      0.656698     6.726863     3.371799
O      2.452565     6.443949     2.449315
C      2.912707     6.793674     1.129449
H      3.936914     7.163748     1.243651
H      2.897058     5.911255     0.481356
C      1.917273     7.847580     0.655478
H      1.882217     7.928409    -0.436197
H      2.189787     8.825470     1.070976
C      0.587991     7.349931     1.250057
H     -0.014314     6.817093     0.509599
H     -0.017189     8.176640     1.638866
