32
Energy = -1142.563421325 Hartree (EUMP2 CORRECTED)
O      1.621034    -0.269209    -0.601480
C      1.851519     0.700716    -1.656925
H      1.285820     0.375349    -2.540976
H      2.918580     0.693640    -1.907681
C      0.930251     0.400847     0.470067
H      0.231786    -0.312846     0.916724
H      1.633084     0.754400     1.236721
C      1.366469     2.047831    -1.131397
H      1.027351     2.729029    -1.913202
H      2.146930     2.564560    -0.565109
C      0.257476     1.613560    -0.167406
H     -0.628469     1.296745    -0.742364
O     -0.160024     2.490451     0.862658
P      0.029578     4.166928     0.916427
O      0.557930     4.637050    -0.425191
O      0.630254     4.529731     2.244490
O     -1.589553     4.574544     1.007724
C     -2.394691     4.378438    -0.153979
H     -3.188340     3.659751     0.092353
H     -1.793566     3.987652    -0.987109
C     -3.015280     5.698301    -0.580735
H     -3.566397     5.535558    -1.517967
O     -3.993998     6.170995     0.364427
C     -3.288206     6.918468     1.381587
H     -3.976183     7.704769     1.712304
H     -3.052772     6.256440     2.220659
C     -2.001761     7.457921     0.728082
H     -1.124636     7.136661     1.294087
H     -2.003118     8.553301     0.680348
C     -1.995686     6.835055    -0.681898
H     -1.005192     6.466444    -0.966708
H     -2.343977     7.560934    -1.426871
