32
Energy = -1142.560308347 Hartree (EUMP2 CORRECTED)
O      2.149182     0.184685    -0.630444
C      2.728074     1.450381    -0.275546
H      3.764198     1.440500    -0.628592
H      2.709687     1.588413     0.814013
C      0.712349     0.372103    -0.710300
H      0.393636    -0.011491    -1.688550
H      0.227810    -0.171601     0.101304
C      1.829635     2.462126    -0.969349
H      2.011419     2.437204    -2.052639
H      1.921415     3.486072    -0.596342
C      0.450343     1.886214    -0.637634
H     -0.315485     2.177974    -1.369287
O      0.041441     2.447359     0.610554
P     -0.235642     1.769720     2.122968
O      0.252781     2.812171     3.102396
O      0.148468     0.313438     2.162866
O     -1.910652     1.807078     2.115892
C     -2.552556     3.083138     2.145484
H     -3.094583     3.219808     1.199975
H     -1.814591     3.887851     2.264019
C     -3.530188     3.126116     3.307253
H     -4.027322     4.106986     3.309956
O     -4.589033     2.155318     3.131914
C     -4.207208     0.985329     3.879619
H     -5.120634     0.402111     4.036582
H     -3.476064     0.400714     3.311128
C     -3.596371     1.546482     5.159376
H     -2.926965     0.833641     5.653119
H     -4.395830     1.817394     5.859993
C     -2.856627     2.798960     4.658421
H     -1.790460     2.608273     4.506022
H     -2.952727     3.635643     5.359647
