32
Energy = -1142.565571290 Hartree (EUMP2 CORRECTED)
O      1.340832     0.157153     0.299155
C      1.905935     1.477945     0.456084
H      2.978664     1.344400     0.627577
H      1.453261     1.980653     1.321087
C      0.161037     0.283923    -0.530672
H      0.257073    -0.440606    -1.349402
H     -0.736042     0.064497     0.057535
C      1.552466     2.200033    -0.832050
H      2.194352     1.842085    -1.649372
H      1.602732     3.289800    -0.783666
C      0.114764     1.726233    -1.042197
H     -0.234955     1.786456    -2.078857
O     -0.771271     2.460135    -0.193112
P     -1.609084     3.765676    -0.801919
O     -2.634054     4.149161     0.229021
O     -1.925358     3.500692    -2.266231
O     -0.337506     4.887357    -0.786844
C     -0.365463     5.907477    -1.774001
H     -1.067987     5.619207    -2.566152
H     -0.721954     6.851893    -1.331177
C      1.021811     6.158728    -2.385085
H      1.623130     6.817834    -1.750163
O      1.791293     4.957571    -2.530659
C      1.185459     4.241168    -3.624973
H      1.957219     3.581252    -4.032381
H      0.339627     3.650341    -3.258293
C      0.700569     5.319226    -4.617056
H     -0.347149     5.148222    -4.882827
H      1.286778     5.321468    -5.542333
C      0.883588     6.636086    -3.836861
H      0.048724     7.334065    -3.977514
H      1.805591     7.144632    -4.140852
