32
Energy = -1142.569589896 Hartree (EUMP2 CORRECTED)
O     -0.390101     0.017754     2.164656
C     -1.179280     1.214907     2.310216
H     -0.621912     1.972678     2.876935
H     -2.083436     0.933607     2.859290
C      0.436091     0.175972     0.982795
H      1.485860     0.272733     1.276017
H      0.301676    -0.723423     0.368892
C     -1.415409     1.675922     0.881415
H     -1.714333     2.722968     0.782846
H     -2.159688     1.028798     0.398753
C     -0.033599     1.449970     0.268893
H     -0.059615     1.334815    -0.818845
O      0.786630     2.555598     0.647884
P      1.927739     3.130018    -0.449258
O      3.130293     3.556731     0.357111
O      1.224235     3.987876    -1.472559
O      2.275300     1.699721    -1.271714
C      3.433224     0.935962    -0.931463
H      3.903149     1.327857    -0.019107
H      3.116821    -0.103554    -0.769441
C      4.427031     0.977566    -2.081709
H      5.283305     0.336453    -1.825677
O      3.847871     0.399944    -3.274460
C      3.350933     1.497025    -4.067495
H      3.230498     1.115432    -5.086723
H      2.389755     1.840918    -3.671352
C      4.421810     2.572091    -3.924035
H      4.039053     3.575422    -4.138454
H      5.254133     2.358253    -4.605940
C      4.857882     2.412667    -2.457844
H      4.362958     3.140182    -1.809811
H      5.939208     2.542949    -2.336488
