32
Energy = -1142.562921275 Hartree (EUMP2 CORRECTED)
O      1.883851    -0.198228     0.311023
C      2.302366     0.977203    -0.397228
H      3.260100     0.742317    -0.872622
H      2.423511     1.815587     0.301602
C      0.450073    -0.090048     0.497189
H      0.017816    -1.051758     0.194610
H      0.234781     0.109126     1.547744
C      1.155582     1.230603    -1.364285
H      1.168457     0.470264    -2.156870
H      1.139520     2.230091    -1.808960
C     -0.046186     1.032746    -0.437748
H     -0.948470     0.710341    -0.975347
O     -0.341906     2.305505     0.141250
P     -0.547535     2.633607     1.782153
O      0.676944     2.124298     2.521540
O     -1.958866     2.323366     2.205491
O     -0.413507     4.283024     1.617367
C      0.858059     4.824182     1.257080
H      0.769692     5.276938     0.260702
H      1.623308     4.036757     1.236001
C      1.265555     5.877888     2.272621
H      2.251112     6.271990     1.986226
O      0.372731     7.014100     2.242905
C     -0.636292     6.772772     3.242680
H     -1.089290     7.743759     3.468826
H     -1.392255     6.084308     2.851729
C      0.127924     6.155700     4.411968
H     -0.514254     5.532019     5.042878
H      0.558512     6.950408     5.033089
C      1.237185     5.340145     3.719837
H      1.018659     4.268376     3.718190
H      2.206293     5.488026     4.209661
