32
Energy = -1142.568384983 Hartree (EUMP2 CORRECTED)
O      1.194364    -0.193277     0.172854
C      1.932051     1.020335    -0.077765
H      2.947462     0.722297    -0.356952
H      1.963017     1.640766     0.827594
C     -0.206399     0.089367    -0.069902
H     -0.583029    -0.690065    -0.743685
H     -0.763427     0.069424     0.871912
C      1.146226     1.715399    -1.177840
H      1.321891     1.209824    -2.137694
H      1.349687     2.784466    -1.276754
C     -0.286381     1.487359    -0.694251
H     -1.039457     1.531751    -1.490111
O     -0.582336     2.426434     0.335759
P     -1.620160     3.699675    -0.016526
O     -1.333153     4.770506     0.997693
O     -2.993606     3.138915    -0.324449
O     -0.944630     4.126215    -1.514361
C     -1.861112     4.374895    -2.580677
H     -2.532384     5.205803    -2.328292
H     -2.479508     3.484708    -2.768654
C     -1.069066     4.731255    -3.825051
H     -1.776696     4.851731    -4.656815
O     -0.409231     6.008741    -3.692949
C      0.921761     5.737592    -3.222274
H      1.516198     6.634258    -3.423519
H      0.901096     5.530501    -2.146985
C      1.351998     4.512168    -4.026119
H      2.154531     3.946186    -3.539861
H      1.703085     4.826597    -5.016088
C      0.044619     3.707396    -4.144132
H      0.017610     2.892854    -3.417070
H     -0.081039     3.279774    -5.145166
