32
Energy = -1142.564528777 Hartree (EUMP2 CORRECTED)
O      1.391767     0.255262     0.318549
C      1.903721     1.404050    -0.395555
H      2.858010     1.101840    -0.838438
H      2.066160     2.237551     0.299826
C     -0.054342     0.336277     0.307695
H     -0.435163    -0.602223    -0.116196
H     -0.426063     0.460328     1.329996
C      0.817315     1.747842    -1.398861
H      0.824113     1.023627    -2.225268
H      0.878290     2.765272    -1.793261
C     -0.437034     1.543333    -0.546882
H     -1.342260     1.382709    -1.142609
O     -0.642700     2.645022     0.348230
P     -1.405804     4.004223    -0.253706
O     -1.815133     4.862180     0.917794
O     -2.337773     3.588924    -1.372441
O     -0.029975     4.703243    -0.953177
C     -0.027185     6.117533    -1.007448
H     -0.861143     6.477793    -1.631719
H     -0.157830     6.549278    -0.005082
C      1.303335     6.581785    -1.580953
H      2.108910     6.356696    -0.874739
O      1.660236     5.910726    -2.800310
C      0.831395     6.482066    -3.820546
H      1.358571     6.343240    -4.768913
H     -0.124827     5.945250    -3.866006
C      0.638572     7.966235    -3.431152
H     -0.421211     8.240644    -3.440764
H      1.158560     8.636830    -4.123281
C      1.233237     8.051978    -2.008325
H      0.625424     8.660580    -1.328678
H      2.243288     8.474587    -2.034926
