32
Energy = -1142.546256555 Hartree (EUMP2 CORRECTED)
O      1.948556     0.524470     0.559582
C      1.977913     1.567291    -0.438636
H      2.867023     1.392418    -1.051644
H      2.037160     2.554504     0.035728
C      0.571710     0.353931     0.962936
H      0.346098    -0.718969     0.913103
H      0.427303     0.719198     1.985252
C      0.658190     1.414785    -1.176316
H      0.691536     0.537328    -1.837367
H      0.381960     2.307139    -1.745606
C     -0.296792     1.173232    -0.000615
H     -1.205689     0.624938    -0.267944
O     -0.604232     2.391235     0.655926
P     -1.453137     3.715272     0.034474
O     -0.432216     4.706643    -0.471408
O     -2.523997     4.036548     1.044791
O     -2.233493     3.177388    -1.364145
C     -2.553168     1.941651    -1.960972
H     -3.007436     1.240429    -1.245175
H     -1.665734     1.472477    -2.414254
C     -3.569758     2.216490    -3.061095
H     -3.677290     1.308358    -3.670945
O     -4.876667     2.490510    -2.537152
C     -4.912948     3.897220    -2.189750
H     -5.954649     4.210362    -2.317133
H     -4.609507     4.024346    -1.146716
C     -3.934062     4.605674    -3.146194
H     -3.213859     5.198506    -2.578792
H     -4.461272     5.264016    -3.846623
C     -3.222050     3.457351    -3.889815
H     -2.141386     3.619125    -3.953192
H     -3.622767     3.337332    -4.903521
