32
Energy = -1142.559736905 Hartree (EUMP2 CORRECTED)
O      2.111019     0.029817    -0.342729
C      2.691910     1.334200    -0.169089
H      3.738531     1.264838    -0.482761
H      2.641965     1.639812     0.884691
C      0.686648     0.203793    -0.568380
H      0.447646    -0.279821    -1.525495
H      0.129741    -0.250737     0.251461
C      1.828957     2.236714    -1.036361
H      2.050587     2.060204    -2.098065
H      1.915378     3.302519    -0.806920
C      0.434989     1.713490    -0.682055
H     -0.306709     1.921791    -1.465596
O     -0.002243     2.411354     0.482345
P     -0.326233     1.920797     2.058015
O      0.466851     2.857233     2.942154
O     -0.321893     0.419394     2.188591
O     -1.933582     2.378967     2.111276
C     -2.240558     3.774266     2.094150
H     -2.784081     3.996723     1.166129
H     -1.322335     4.375610     2.134193
C     -3.110586     4.111640     3.292863
H     -3.348602     5.184724     3.261290
O     -4.384838     3.430028     3.220272
C     -4.258370     2.230121     4.006647
H     -5.276185     1.899327     4.238569
H     -3.730247     1.461189     3.432975
C     -3.451409     2.667644     5.224872
H     -2.944085     1.829394     5.714614
H     -4.116490     3.146970     5.953726
C     -2.463578     3.686436     4.629672
H     -1.482032     3.241220     4.443788
H     -2.323047     4.548949     5.290970
