32
Energy = -1142.573031809 Hartree (EUMP2 CORRECTED)
O      1.362831     0.793822     1.373818
C      2.046940     1.478237     0.299993
H      2.989609     0.947168     0.133268
H      2.259164     2.514053     0.597264
C     -0.063184     0.916890     1.149347
H     -0.480576    -0.096719     1.082443
H     -0.522585     1.453262     1.985403
C      1.078952     1.437226    -0.870035
H      1.077657     0.437591    -1.326154
H      1.241486     2.194738    -1.640942
C     -0.245839     1.692887    -0.152697
H     -1.121859     1.351409    -0.719255
O     -0.369944     3.076111     0.183266
P     -1.135214     4.058047    -0.978201
O     -2.627661     3.979771    -0.795534
O     -0.428045     3.803641    -2.294058
O     -0.627850     5.494716    -0.314512
C      0.776487     5.736073    -0.207019
H      1.074937     6.444046    -0.991016
H      1.347425     4.806801    -0.334389
C      1.069880     6.327225     1.160808
H      2.152273     6.507299     1.235265
O      0.448022     7.626479     1.303273
C     -0.770354     7.425646     2.042648
H     -1.062717     8.403538     2.438597
H     -1.550785     7.035549     1.379347
C     -0.384588     6.405570     3.106981
H     -1.250908     5.890629     3.536950
H      0.161509     6.907723     3.915200
C      0.535862     5.458184     2.321814
H     -0.022821     4.609270     1.920133
H      1.353964     5.068340     2.938202
