32
Energy = -1142.564357386 Hartree (EUMP2 CORRECTED)
O      0.724026    -0.171730     1.216860
C     -0.127475     0.922627     1.613774
H      0.413793     1.598820     2.288167
H     -0.983971     0.485192     2.137035
C      1.436735     0.228559     0.017151
H      2.508372     0.300111     0.227269
H      1.251290    -0.539761    -0.744707
C     -0.468777     1.626336     0.309843
H     -0.818492     2.655640     0.430708
H     -1.209084     1.040804    -0.252027
C      0.886947     1.596914    -0.397067
H      0.799166     1.703675    -1.481006
O      1.694470     2.626293     0.163862
P      2.528987     3.778793    -0.741601
O      3.960987     3.319313    -0.906816
O      2.114243     5.126227    -0.215434
O      1.763569     3.571995    -2.233466
C      2.427663     2.807754    -3.235515
H      2.657761     1.794272    -2.880095
H      3.376897     3.283143    -3.520849
C      1.487564     2.732211    -4.422670
H      1.972818     2.164006    -5.228886
O      0.297230     1.981355    -4.070022
C     -0.757167     2.932082    -3.843490
H     -1.701594     2.387146    -3.941056
H     -0.668222     3.358438    -2.836487
C     -0.528194     3.992998    -4.912089
H     -1.035638     4.938868    -4.691870
H     -0.882671     3.621303    -5.881255
C      1.001280     4.119482    -4.895783
H      1.311353     4.878355    -4.171445
H      1.413125     4.380452    -5.877005
