32
Energy = -1142.570714787 Hartree (EUMP2 CORRECTED)
O      0.978361     0.258638     0.860641
C      1.608064     0.929975    -0.254213
H      2.303290     0.214222    -0.704687
H      2.162288     1.807604     0.102365
C     -0.350783     0.806671     1.010966
H     -1.064631    -0.026548     0.952616
H     -0.436239     1.301268     1.984342
C      0.457231     1.344062    -1.151052
H      0.058586     0.465812    -1.678698
H      0.693028     2.136314    -1.864373
C     -0.570289     1.817402    -0.117778
H     -1.600375     1.808727    -0.495151
O     -0.253914     3.105327     0.429894
P     -0.371204     4.498322    -0.507706
O      0.065788     4.211935    -1.930390
O      0.162598     5.603976     0.356665
O     -2.054183     4.638353    -0.515452
C     -2.803689     4.317398    -1.680928
H     -2.271609     3.593684    -2.307937
H     -2.973101     5.226526    -2.282753
C     -4.141006     3.755238    -1.231974
H     -4.762384     3.561872    -2.118229
O     -3.961707     2.469856    -0.589535
C     -4.003700     2.694396     0.831537
H     -4.219500     1.727614     1.297789
H     -3.036608     3.076428     1.180057
C     -5.108022     3.730648     0.999274
H     -5.057680     4.255831     1.959601
H     -6.086214     3.241143     0.918489
C     -4.856627     4.657090    -0.199908
H     -4.194529     5.479231     0.086200
H     -5.783778     5.078335    -0.604773
