32
Energy = -1142.567486235 Hartree (EUMP2 CORRECTED)
O      0.303668    -0.372016    -0.156034
C      1.559416     0.128059     0.327718
H      2.265661    -0.708485     0.312920
H      1.455797     0.504889     1.355190
C     -0.446649     0.765370    -0.669184
H     -0.847827     0.471428    -1.645604
H     -1.269850     1.015377     0.003285
C      1.893712     1.261706    -0.629799
H      2.215586     0.851912    -1.595751
H      2.650138     1.958758    -0.256141
C      0.534020     1.942310    -0.773141
H      0.430322     2.487695    -1.714884
O      0.396925     2.834909     0.347808
P     -0.798748     4.010792     0.232428
O     -0.881400     4.653246     1.590293
O     -1.972517     3.439856    -0.534328
O     -0.082778     5.097562    -0.846746
C      1.281547     5.142082    -1.218577
H      1.819720     4.245768    -0.891214
H      1.763772     6.019669    -0.752379
C      1.355037     5.277122    -2.732562
H      2.407813     5.391474    -3.030390
O      0.891020     4.068715    -3.374315
C     -0.479483     4.292765    -3.771998
H     -0.703474     3.550061    -4.544414
H     -1.148151     4.159498    -2.913417
C     -0.469483     5.730638    -4.276399
H     -1.469302     6.177942    -4.301377
H     -0.045627     5.764153    -5.287597
C      0.464127     6.421033    -3.269889
H     -0.113621     6.851704    -2.447498
H      1.062278     7.214877    -3.731664
