32
Energy = -1142.574076971 Hartree (EUMP2 CORRECTED)
O      2.101470     0.768228     0.351744
C      1.465648     0.268152    -0.848451
H      1.775108    -0.775885    -0.960314
H      1.803231     0.847011    -1.717327
C      1.219603     1.744631     0.953658
H      0.973529     1.398898     1.966984
H      1.727201     2.713280     1.007983
C     -0.022067     0.467230    -0.617766
H     -0.409380    -0.300534     0.066067
H     -0.614072     0.490759    -1.536751
C     -0.022202     1.833268     0.072538
H     -0.935751     2.037344     0.645934
O      0.198142     2.883100    -0.872434
P     -1.157158     3.342927    -1.795448
O     -2.270783     3.718940    -0.850673
O     -1.303558     2.340053    -2.920469
O     -0.486293     4.749677    -2.365550
C      0.718123     4.668111    -3.135766
H      0.478449     4.826803    -4.195258
H      1.184586     3.680912    -3.022295
C      1.683778     5.739912    -2.657875
H      2.656540     5.572276    -3.139866
O      1.276988     7.062458    -3.063850
C      0.332569     7.540316    -2.079900
H      0.451212     8.628988    -2.047485
H     -0.684315     7.289801    -2.398767
C      0.680162     6.839302    -0.752622
H     -0.196290     6.321618    -0.356428
H      1.037815     7.553906    -0.001785
C      1.778694     5.827445    -1.132440
H      1.621766     4.852140    -0.663759
H      2.770023     6.208156    -0.858162
