32
Energy = -1142.566199510 Hartree (EUMP2 CORRECTED)
O      1.483104     0.264775     0.261151
C      1.962281     1.469051    -0.380800
H      2.925528     1.221638    -0.838154
H      2.099927     2.262856     0.364733
C      0.035304     0.308780     0.256571
H     -0.321768    -0.614274    -0.218661
H     -0.337105     0.365932     1.284537
C      0.867433     1.840872    -1.364566
H      0.895916     1.165495    -2.230980
H      0.894855     2.880351    -1.700378
C     -0.380893     1.551542    -0.528978
H     -1.281167     1.398620    -1.134034
O     -0.620039     2.595720     0.426425
P     -1.480281     3.930665    -0.082388
O     -1.898119     4.710662     1.137995
O     -2.434835     3.527623    -1.189258
O     -0.161096     4.712991    -0.802196
C     -0.467982     5.961809    -1.393416
H     -1.273712     5.846870    -2.135777
H     -0.800922     6.684396    -0.630400
C      0.775508     6.496134    -2.073274
H      1.599314     6.522016    -1.351647
O      1.215514     5.613787    -3.134906
C      0.723877     6.155530    -4.361225
H      1.298661     5.697240    -5.171168
H     -0.341366     5.910367    -4.497692
C      0.930407     7.656958    -4.202692
H      0.347856     8.257530    -4.910895
H      1.992324     7.891692    -4.337291
C      0.506944     7.865419    -2.742464
H     -0.562279     8.106614    -2.684286
H      1.053552     8.677792    -2.252629
