32
Energy = -1142.565516489 Hartree (EUMP2 CORRECTED)
O      1.843666     0.164976    -0.590758
C      1.053922     0.437623    -1.771123
H      1.177743    -0.420089    -2.439703
H      1.419005     1.346738    -2.265768
C      1.203630     0.814386     0.533135
H      1.001476     0.046541     1.291678
H      1.869454     1.578470     0.947619
C     -0.359006     0.640361    -1.252377
H     -0.810800    -0.325686    -0.988975
H     -1.009459     1.185783    -1.941619
C     -0.082465     1.452534     0.015212
H     -0.901797     1.419772     0.743963
O      0.219346     2.813041    -0.306834
P     -1.109147     3.783116    -0.710909
O     -2.204041     3.573436     0.303126
O     -1.325870     3.639875    -2.206798
O     -0.385883     5.249694    -0.404272
C      0.942442     5.504450    -0.872476
H      1.459920     4.569497    -1.108158
H      1.468187     5.976894    -0.033905
C      1.021194     6.429891    -2.116520
H      1.477352     7.383489    -1.825679
O      1.936558     5.869288    -3.085339
C      1.122658     4.999682    -3.899799
H      1.709895     4.769256    -4.794065
H      0.884087     4.076486    -3.357487
C     -0.152858     5.796385    -4.158085
H     -1.011109     5.135077    -4.301785
H     -0.026125     6.438057    -5.038642
C     -0.303485     6.642750    -2.874837
H     -1.152896     6.313511    -2.275931
H     -0.431135     7.705179    -3.112099
