32
Energy = -1142.568101120 Hartree (EUMP2 CORRECTED)
O      1.658482     0.257620     0.340301
C      2.107533     1.433974    -0.363761
H      3.109891     1.212730    -0.744220
H      2.153326     2.290396     0.322068
C      0.210251     0.225120     0.267925
H     -0.074803    -0.754447    -0.136630
H     -0.214131     0.354352     1.268392
C      1.052214     1.656329    -1.434016
H      1.172279     0.922363    -2.242428
H      1.042454     2.661862    -1.859164
C     -0.226294     1.372489    -0.643570
H     -1.074175     1.116933    -1.287172
O     -0.560135     2.478465     0.194852
P     -1.516030     3.713476    -0.445011
O     -2.401487     4.189264     0.671858
O     -1.984921     3.278186    -1.819379
O     -0.309911     4.874497    -0.651094
C     -0.052123     5.375899    -1.958607
H     -0.899176     5.972790    -2.320456
H      0.108386     4.554390    -2.672945
C      1.187582     6.250805    -1.886219
H      1.456712     6.557314    -2.906603
O      0.922101     7.478484    -1.171314
C      1.341735     7.263912     0.187848
H      1.446536     8.252875     0.644884
H      0.588597     6.675207     0.722894
C      2.653670     6.498922     0.044364
H      2.926634     5.949932     0.952481
H      3.462711     7.198695    -0.197345
C      2.360846     5.567635    -1.144692
H      2.046505     4.583762    -0.788377
H      3.232861     5.443519    -1.796736
