32
Energy = -1142.566295629 Hartree (EUMP2 CORRECTED)
O      1.638944    -0.046562     0.006198
C      0.749550    -0.131058    -1.131960
H      0.804195    -1.160225    -1.500706
H      1.077614     0.561280    -1.917276
C      1.099444     0.935307     0.922431
H      0.944403     0.440980     1.890906
H      1.809167     1.761084     1.037777
C     -0.609821     0.279204    -0.593402
H     -1.050690    -0.536186    -0.003940
H     -1.309645     0.604706    -1.367858
C     -0.213265     1.435458     0.327436
H     -0.970386     1.668922     1.085859
O      0.086064     2.610188    -0.431751
P     -1.255711     3.439922    -1.051208
O     -2.319611     3.519014     0.014692
O     -1.517222     2.891156    -2.442035
O     -0.530377     4.932047    -1.202181
C      0.867967     5.059331    -1.459878
H      1.325372     4.084894    -1.662738
H      1.357725     5.491244    -0.578380
C      1.063878     5.945399    -2.689989
H      0.976910     7.003720    -2.413235
O      2.418978     5.780632    -3.190030
C      2.327416     4.953909    -4.361162
H      3.248550     5.107305    -4.931832
H      2.249161     3.892492    -4.079037
C      1.053825     5.426465    -5.045899
H      0.676080     4.715654    -5.789613
H      1.242866     6.386789    -5.541841
C      0.110570     5.583990    -3.845207
H     -0.413556     4.646450    -3.628773
H     -0.650394     6.355251    -3.998208
