32
Energy = -1142.571214294 Hartree (EUMP2 CORRECTED)
O      0.734017     0.154915     0.969692
C      1.569182     0.820434    -0.008241
H      2.272559     0.071626    -0.386046
H      2.120546     1.640894     0.466735
C     -0.576999     0.765587     0.929188
H     -1.307530    -0.018207     0.686030
H     -0.810792     1.196999     1.908257
C      0.599668     1.360280    -1.045274
H      0.242712     0.551832    -1.697761
H      1.011091     2.173781    -1.649031
C     -0.536391     1.848533    -0.143639
H     -1.489059     1.972874    -0.672848
O     -0.176358     3.071586     0.501599
P     -0.232832     4.466467    -0.473930
O     -1.446007     4.368077    -1.367140
O      1.170735     4.713778    -0.979213
O     -0.604845     5.534562     0.746419
C      0.094410     5.471475     1.991280
H      0.767109     6.336553     2.060119
H      0.685536     4.550340     2.070426
C     -0.920003     5.522004     3.121145
H     -0.378974     5.474031     4.077260
O     -1.616878     6.790442     3.129846
C     -2.878969     6.577426     2.471573
H     -3.530369     7.407082     2.764595
H     -2.738436     6.568590     1.384903
C     -3.328824     5.214259     2.983059
H     -4.085777     4.748624     2.342201
H     -3.740966     5.319360     3.994324
C     -2.007597     4.430305     3.003265
H     -1.866603     3.872518     2.074348
H     -1.955655     3.723864     3.839848
