32
Energy = -1142.549098015 Hartree (EUMP2 CORRECTED)
O      1.616870     0.402317     1.229960
C      2.320623     1.448046     0.538208
H      3.370420     1.144542     0.483139
H      2.236110     2.396949     1.085233
C      0.223973     0.501243     0.844387
H     -0.116128    -0.514733     0.612399
H     -0.371974     0.917437     1.662747
C      1.613034     1.543366    -0.805155
H      1.891943     0.687825    -1.435233
H      1.808556     2.478339    -1.337144
C      0.148408     1.447303    -0.369971
H     -0.519762     1.032225    -1.129297
O     -0.286180     2.725546     0.066771
P     -1.621844     3.585949    -0.510057
O     -1.183375     5.029925    -0.510493
O     -2.856838     3.067787     0.183267
O     -1.806431     3.125490    -2.123983
C     -0.968943     2.457752    -3.043540
H     -1.298247     1.415323    -3.170595
H      0.083675     2.468866    -2.730149
C     -1.054158     3.183953    -4.378174
H     -0.336445     2.725118    -5.073630
O     -2.341360     3.040728    -4.998901
C     -3.202181     4.074710    -4.462399
H     -3.898624     4.333782    -5.267542
H     -3.755499     3.676245    -3.607157
C     -2.288031     5.238381    -4.037110
H     -2.450804     5.499715    -2.989339
H     -2.458869     6.128397    -4.654098
C     -0.857837     4.695597    -4.224929
H     -0.224517     4.945463    -3.367550
H     -0.400216     5.095946    -5.137673
