32
Energy = -1142.568514963 Hartree (EUMP2 CORRECTED)
O      1.274157     0.005207     0.396195
C      1.863658     0.978982     1.268855
H      2.699415     0.490539     1.779426
H      1.130459     1.329633     2.009398
C      0.484990     0.749593    -0.571259
H      0.613017     0.252278    -1.537789
H     -0.570949     0.741188    -0.284098
C      2.258232     2.104918     0.325258
H      3.133041     1.798583    -0.262640
H      2.455690     3.065002     0.811219
C      1.021007     2.197477    -0.567970
H      1.261764     2.543971    -1.579863
O      0.126807     3.113932     0.062322
P     -1.411100     3.385704    -0.581146
O     -1.575568     4.881078    -0.718568
O     -2.392826     2.474294     0.110756
O     -1.200614     2.707503    -2.109569
C     -0.737302     3.517149    -3.191235
H      0.161453     3.044481    -3.612470
H     -0.495546     4.530487    -2.842581
C     -1.810981     3.588062    -4.265127
H     -1.424368     4.181346    -5.106624
O     -2.079646     2.273454    -4.803811
C     -3.233951     1.765910    -4.104609
H     -3.640914     0.957260    -4.720392
H     -2.938377     1.384917    -3.121451
C     -4.151208     2.976833    -3.975994
H     -4.873913     2.869944    -3.160146
H     -4.699658     3.125652    -4.914270
C     -3.157558     4.125724    -3.732480
H     -3.073260     4.369329    -2.670214
H     -3.452880     5.039170    -4.260933
