32
Energy = -1142.571251491 Hartree (EUMP2 CORRECTED)
O      0.901383    -0.474261     0.273284
C      1.880989     0.498536    -0.141571
H      2.745658    -0.060791    -0.511926
H      2.181734     1.123554     0.710170
C     -0.397575     0.162755     0.198305
H     -1.062402    -0.522180    -0.341270
H     -0.786471     0.344077     1.205701
C      1.160948     1.332223    -1.188244
H      1.075618     0.766408    -2.126089
H      1.614682     2.308364    -1.377343
C     -0.213923     1.496901    -0.533470
H     -1.025713     1.695744    -1.243167
O     -0.164114     2.536462     0.448137
P     -0.702002     4.055245    -0.017597
O     -0.546966     4.940479     1.188213
O     -1.968309     3.899726    -0.833181
O      0.547004     4.450267    -1.085511
C      0.285116     4.724581    -2.460293
H     -0.792528     4.735926    -2.657442
H      0.748807     3.924916    -3.064200
C      0.911684     6.058468    -2.856998
H      1.073241     6.062413    -3.943562
O      0.042780     7.174726    -2.599205
C      0.195438     7.512451    -1.199669
H     -0.004397     8.586419    -1.124120
H     -0.535414     6.963599    -0.598304
C      1.633676     7.119494    -0.810796
H      1.610437     6.452454     0.053437
H      2.241508     7.999198    -0.568031
C      2.175695     6.393752    -2.057586
H      2.752598     5.500481    -1.798298
H      2.806949     7.062091    -2.655993
