32
Energy = -1142.571742956 Hartree (EUMP2 CORRECTED)
O      1.541968     0.356945     0.323401
C      1.803333     1.345888    -0.703488
H      2.643396     0.969025    -1.296078
H      2.077177     2.303486    -0.244025
C      0.122807     0.367563     0.607624
H     -0.268231    -0.640793     0.413201
H     -0.040330     0.633190     1.656903
C      0.493717     1.461687    -1.464883
H      0.357846     0.597045    -2.129700
H      0.372565     2.382406    -2.039810
C     -0.511640     1.404479    -0.314575
H     -1.521724     1.129947    -0.639710
O     -0.525913     2.640785     0.398724
P     -1.399654     3.937900    -0.243925
O     -2.303520     4.444714     0.853219
O     -1.838514     3.591209    -1.645620
O     -0.111168     5.000738    -0.399211
C      0.590031     5.347096     0.793641
H      0.857022     4.444538     1.357488
H     -0.038092     5.990559     1.429436
C      1.852582     6.082130     0.384900
H      2.372040     6.422721     1.291372
O      2.775372     5.186001    -0.279800
C      2.614577     5.390035    -1.692911
H      3.511108     4.987309    -2.175126
H      1.721928     4.862846    -2.049143
C      2.455965     6.900448    -1.825817
H      1.995266     7.199206    -2.774134
H      3.438976     7.380403    -1.747511
C      1.582311     7.237229    -0.607181
H      0.524174     7.240950    -0.882916
H      1.833467     8.210785    -0.171513
