32
Energy = -1142.568995881 Hartree (EUMP2 CORRECTED)
O      1.296224    -0.306757     0.271077
C      2.065579     0.811364    -0.211173
H      3.027749     0.412950    -0.547915
H      2.227722     1.539743     0.595022
C     -0.104937     0.048430     0.153909
H     -0.608204    -0.788340    -0.345113
H     -0.536416     0.205997     1.147620
C      1.201022     1.412031    -1.307722
H      1.239994     0.781065    -2.206089
H      1.462712     2.440973    -1.566469
C     -0.184282     1.346600    -0.656749
H     -1.012477     1.345466    -1.373912
O     -0.335323     2.436090     0.253183
P     -1.320013     3.733607    -0.184027
O     -1.673450     4.426070     1.100728
O     -2.294445     3.253456    -1.240177
O     -0.175107     4.709069    -0.949368
C     -0.172961     4.795451    -2.370999
H     -1.162225     5.079735    -2.745660
H      0.097325     3.829139    -2.829219
C      0.857344     5.839462    -2.767047
H      0.949382     5.839799    -3.862054
O      0.419983     7.168979    -2.414562
C      0.986047     7.460600    -1.123304
H      0.935250     8.546501    -0.996662
H      0.409656     6.957423    -0.340207
C      2.406401     6.910033    -1.216658
H      2.843504     6.704075    -0.233480
H      3.047614     7.629668    -1.739542
C      2.218254     5.635124    -2.059134
H      2.172731     4.752730    -1.415568
H      3.030588     5.499070    -2.782089
