32
Energy = -1142.567260325 Hartree (EUMP2 CORRECTED)
O      1.512117     0.096451     0.189993
C      1.760520     1.291127    -0.584418
H      2.607560     1.070296    -1.241046
H      2.011327     2.129417     0.077585
C      0.115715     0.105113     0.566213
H     -0.304235    -0.869929     0.287286
H      0.017626     0.257579     1.646302
C      0.449006     1.557193    -1.302810
H      0.318219     0.851608    -2.135258
H      0.347412     2.584599    -1.661492
C     -0.555459     1.258670    -0.186017
H     -1.546253     0.981406    -0.566397
O     -0.655685     2.351455     0.721814
P     -1.402284     3.797340     0.253880
O     -0.322089     4.723259    -0.250984
O     -2.425775     4.142522     1.304873
O     -2.186050     3.247506    -1.136132
C     -3.595223     3.028623    -1.104768
H     -4.096673     3.803337    -0.515536
H     -3.819207     2.049109    -0.645647
C     -4.099260     3.032587    -2.537125
H     -5.137349     2.673070    -2.542222
O     -4.145114     4.352352    -3.102468
C     -2.821870     4.651838    -3.601879
H     -2.963947     5.342401    -4.439906
H     -2.230636     5.133057    -2.817632
C     -2.198005     3.303643    -4.012259
H     -1.222220     3.183213    -3.537707
H     -2.071467     3.231883    -5.098905
C     -3.194531     2.246524    -3.494547
H     -2.691054     1.413920    -2.992086
H     -3.798337     1.844070    -4.316636
