32
Energy = -1142.574759738 Hartree (EUMP2 CORRECTED)
O      1.473100     0.277275     0.211682
C      1.798327     1.431744    -0.591735
H      2.632553     1.143990    -1.239892
H      2.103922     2.265597     0.054317
C      0.055987     0.332213     0.524200
H     -0.394781    -0.608532     0.182736
H     -0.083203     0.441624     1.603465
C      0.507986     1.763135    -1.324437
H      0.345025     1.041909    -2.137636
H      0.449098     2.778844    -1.725213
C     -0.514614     1.543352    -0.212765
H     -1.533033     1.357473    -0.569079
O     -0.490754     2.682479     0.655895
P     -1.975459     3.399815     0.994630
O     -1.699644     4.436901     2.051898
O     -3.041553     2.333186     1.044476
O     -2.206906     4.179521    -0.484231
C     -1.344561     5.282929    -0.752829
H     -0.301612     5.024558    -0.526949
H     -1.628610     6.147297    -0.133284
C     -1.475434     5.623194    -2.225372
H     -0.875893     6.519469    -2.437465
O     -0.906911     4.571327    -3.044382
C     -1.999620     3.761855    -3.509361
H     -1.632738     3.198837    -4.373546
H     -2.320901     3.075089    -2.717097
C     -3.088165     4.776883    -3.837001
H     -4.087133     4.329694    -3.890014
H     -2.866270     5.253985    -4.799272
C     -2.944520     5.778419    -2.680818
H     -3.611011     5.508860    -1.856852
H     -3.165993     6.806298    -2.989109
