32
Energy = -1142.570046360 Hartree (EUMP2 CORRECTED)
O      0.950794     0.273936     0.991247
C      1.787473     1.446597     0.887163
H      2.814443     1.121002     1.080604
H      1.489057     2.188311     1.639676
C     -0.198470     0.473023     0.131966
H     -0.259773    -0.391162    -0.541692
H     -1.108570     0.539444     0.736474
C      1.538551     1.972179    -0.515367
H      2.055581     1.341046    -1.251351
H      1.801537     3.020282    -0.678271
C      0.025981     1.780377    -0.629256
H     -0.328322     1.719215    -1.666698
O     -0.668128     2.813643     0.077301
P     -1.008853     4.193643    -0.827882
O     -2.242839     3.951874    -1.662600
O      0.281241     4.718886    -1.437171
O     -1.355138     5.087357     0.536049
C     -1.105606     6.492510     0.510720
H     -2.060436     7.012670     0.660449
H     -0.665524     6.800544    -0.447478
C     -0.149975     6.845020     1.638800
H      0.005124     7.934002     1.640912
O     -0.740704     6.531432     2.922110
C     -0.207057     5.256386     3.326235
H     -0.371777     5.175124     4.405561
H     -0.725907     4.447837     2.799016
C      1.259096     5.331993     2.918100
H      1.729604     4.345694     2.840634
H      1.814666     5.926937     3.653848
C      1.178634     6.059314     1.567000
H      1.146537     5.356017     0.730050
H      2.028988     6.732318     1.408071
