32
Energy = -1142.566786000 Hartree (EUMP2 CORRECTED)
O      0.644447     0.287183     2.560914
C     -0.267948     1.383706     2.768130
H      0.279400     2.279434     3.090218
H     -0.963569     1.072155     3.553657
C      1.137165     0.375487     1.199884
H      2.198599     0.643452     1.206901
H      1.003028    -0.613113     0.742489
C     -0.899410     1.600405     1.402778
H     -1.374546     2.576028     1.269558
H     -1.622695     0.800750     1.194761
C      0.320933     1.467550     0.492221
H      0.066823     1.195023    -0.536763
O      1.020572     2.706908     0.532949
P      1.803892     3.338352    -0.822323
O      3.214362     3.673754    -0.395824
O      0.868137     4.295681    -1.515177
O      1.838510     1.974398    -1.809066
C      2.971925     1.106088    -1.791216
H      2.621299     0.089496    -1.562825
H      3.697181     1.429371    -1.032094
C      3.631757     1.111408    -3.160507
H      4.471960     0.401898    -3.146557
O      2.719321     0.618875    -4.168739
C      2.127016     1.775287    -4.793772
H      1.719017     1.437444    -5.752014
H      1.329865     2.176865    -4.159198
C      3.283098     2.760796    -4.917711
H      2.942436     3.796579    -5.020139
H      3.895667     2.503473    -5.790625
C      4.060494     2.525237    -3.612038
H      3.796480     3.261464    -2.848412
H      5.144255     2.578635    -3.765150
