32
Energy = -1142.562584813 Hartree (EUMP2 CORRECTED)
O      0.352824    -0.689700     0.270980
C     -0.552199    -0.511134    -0.828828
H     -1.560833    -0.863460    -0.546726
H     -0.183214    -1.127969    -1.653286
C      0.117033     0.417116     1.170004
H     -0.566964     0.092783     1.968499
H      1.071909     0.719981     1.605744
C     -0.537949     0.986280    -1.105184
H     -1.419764     1.333759    -1.655730
H      0.364090     1.274285    -1.645031
C     -0.502743     1.554559     0.323104
H     -1.539575     1.708456     0.652597
O      0.084069     2.829833     0.537604
P      1.696578     3.252801     0.291298
O      2.490983     2.840100     1.514836
O      1.675236     4.647357    -0.274680
O      2.127277     2.216374    -0.957767
C      3.073539     1.163255    -0.747016
H      2.617566     0.225005    -1.088628
H      3.315859     1.083963     0.320062
C      4.337235     1.439617    -1.540257
H      5.062478     0.644347    -1.316228
O      4.114433     1.369405    -2.962799
C      3.677801     2.676533    -3.402504
H      4.068386     2.800294    -4.419217
H      2.583444     2.705248    -3.424378
C      4.233560     3.701277    -2.397001
H      3.425706     4.297165    -1.965276
H      4.955654     4.376518    -2.871477
C      4.907597     2.841295    -1.309616
H      4.696573     3.207718    -0.299755
H      5.994720     2.812649    -1.452673
