32
Energy = -1142.560146263 Hartree (EUMP2 CORRECTED)
O      1.978023    -0.074071    -0.530424
C      2.633716     1.203173    -0.435293
H      3.647926     1.071658    -0.825842
H      2.681158     1.537123     0.609709
C      0.550111     0.168639    -0.615793
H      0.187054    -0.356657    -1.509460
H      0.060508    -0.204971     0.284493
C      1.750800     2.123707    -1.262866
H      1.904688     3.189749    -1.073104
H      1.884838     1.907405    -2.331932
C      0.360547     1.683816    -0.791693
H     -0.420157     1.893737    -1.534298
O      0.007309     2.450146     0.358529
P      0.055346     2.091038     2.002583
O      1.110798     2.994130     2.605572
O     -0.019693     0.605507     2.246298
O     -1.450509     2.699580     2.381578
C     -1.645259     4.114546     2.333289
H     -2.374379     4.334157     1.542195
H     -0.700600     4.630425     2.114746
C     -2.177348     4.594981     3.672700
H     -2.330606     5.682445     3.617455
O     -3.481985     4.033573     3.947581
C     -3.267270     2.866950     4.764598
H     -4.223147     2.645615     5.250866
H     -2.955698     2.024236     4.138585
C     -2.159840     3.284939     5.726931
H     -1.615721     2.427164     6.136795
H     -2.591307     3.854368     6.559296
C     -1.267761     4.182966     4.851401
H     -0.391395     3.646197     4.477043
H     -0.914918     5.062560     5.401701
