32
Energy = -1142.574933161 Hartree (EUMP2 CORRECTED)
O      1.409996     0.124546     0.516983
C      1.835067     1.142586    -0.414278
H      2.669534     0.724429    -0.986106
H      2.172998     2.033751     0.131876
C     -0.005442     0.314853     0.765543
H     -0.509187    -0.634779     0.543312
H     -0.164605     0.584050     1.814222
C      0.594269     1.449894    -1.234252
H      0.406700     0.630183    -1.942590
H      0.627272     2.390792    -1.785189
C     -0.482682     1.444932    -0.149538
H     -1.495684     1.267877    -0.530574
O     -0.458519     2.660086     0.609896
P     -1.586837     3.840154     0.196081
O     -1.236692     5.055684     1.014386
O     -2.945339     3.189444     0.101201
O     -1.141007     4.114327    -1.408792
C     -0.055588     5.011809    -1.633300
H      0.884406     4.594781    -1.243131
H     -0.239199     5.968485    -1.124055
C      0.056414     5.219186    -3.131159
H      0.867962     5.931998    -3.333396
O      0.443346     3.986932    -3.789657
C     -0.752855     3.407386    -4.338070
H     -0.435864     2.696002    -5.107424
H     -1.314019     2.890277    -3.550265
C     -1.527770     4.606514    -4.870407
H     -2.591925     4.393700    -5.021434
H     -1.095290     4.928599    -5.825486
C     -1.280506     5.652558    -3.773249
H     -2.073784     5.611888    -3.021542
H     -1.226238     6.671716    -4.171695
