32
Energy = -1142.563821309 Hartree (EUMP2 CORRECTED)
O     -1.272222     0.300184    -0.941615
C     -0.347962     1.031334    -1.779570
H     -0.776496     1.023077    -2.786742
H      0.627858     0.535417    -1.786576
C     -0.974751     0.695317     0.406449
H     -1.875276     0.496981     0.996866
H     -0.139579     0.122949     0.817551
C     -0.255862     2.420709    -1.149484
H      0.743696     2.858190    -1.223729
H     -0.973198     3.106396    -1.616631
C     -0.622363     2.196946     0.341109
H     -1.503367     2.793432     0.602461
O      0.362805     2.633921     1.268933
P      1.944320     2.095031     1.395007
O      2.112738     1.349163     2.699257
O      2.846003     3.227424     0.961753
O      1.923779     0.964969     0.144051
C      2.453314    -0.343956     0.337528
H      2.592212    -0.547700     1.408029
H      1.726849    -1.057517    -0.077621
C      3.763632    -0.482725    -0.418959
H      4.107732    -1.524676    -0.337963
O      3.540812    -0.247469    -1.831285
C      3.988501     1.093794    -2.107564
H      4.149856     1.154255    -3.188964
H      3.227274     1.817012    -1.792968
C      5.251187     1.239973    -1.270013
H      5.525249     2.285906    -1.097319
H      6.085157     0.726378    -1.764961
C      4.845583     0.524695     0.026338
H      4.434659     1.251369     0.731351
H      5.688190     0.016540     0.508638
