32
Energy = -1142.560949515 Hartree (EUMP2 CORRECTED)
O      2.183747     0.126765    -0.171898
C      2.690980     1.451008     0.065124
H      3.756046     1.439742    -0.188533
H      2.565734     1.725637     1.121190
C      0.769454     0.240710    -0.492503
H      0.621984    -0.216263    -1.480611
H      0.180110    -0.270995     0.268488
C      1.837104     2.338549    -0.826279
H      2.127457     2.205961    -1.877552
H      1.858526     3.399773    -0.562698
C      0.453654     1.739503    -0.572467
H     -0.250958     1.936990    -1.393555
O     -0.066598     2.380883     0.591669
P     -0.733125     1.782713     2.014680
O     -0.248428     2.727706     3.089532
O     -0.647900     0.280054     2.091635
O     -2.342503     2.127334     1.699055
C     -2.737439     3.499347     1.647178
H     -3.063103     3.727279     0.623218
H     -1.900667     4.156504     1.919806
C     -3.887479     3.727803     2.613003
H     -4.191024     4.782995     2.552315
O     -5.053950     2.965753     2.222059
C     -5.031927     1.749387     2.992689
H     -6.048419     1.342996     2.965431
H     -4.326376     1.038768     2.549199
C     -4.574580     2.196188     4.377292
H     -4.145191     1.375923     4.962793
H     -5.426803     2.610576     4.929897
C     -3.543656     3.291674     4.054546
H     -2.519172     2.910718     4.093790
H     -3.616349     4.135760     4.749696
