32
Energy = -1142.553901074 Hartree (EUMP2 CORRECTED)
O      1.571091     0.836501    -0.945517
C      1.974934     2.197423    -0.668874
H      2.910278     2.373549    -1.210744
H      2.133961     2.326336     0.409349
C      0.125171     0.793172    -0.982568
H     -0.185531     0.565765    -2.014089
H     -0.219329     0.010215    -0.311095
C      0.803143     3.041262    -1.145975
H      0.790221     3.096627    -2.243688
H      0.777571     4.047405    -0.718826
C     -0.366951     2.197587    -0.628449
H     -1.312256     2.412238    -1.147443
O     -0.552400     2.538917     0.733714
P     -0.389763     1.822789     2.241544
O     -1.767882     1.697273     2.849088
O      0.772970     2.516074     2.908760
O      0.146722     0.284054     1.830770
C     -0.695868    -0.828868     2.127185
H     -1.440764    -0.973430     1.329739
H     -1.238187    -0.662763     3.066690
C      0.185481    -2.058883     2.224960
H     -0.442503    -2.917377     2.504356
O      0.751590    -2.388351     0.934617
C      2.110940    -1.903770     0.932032
H      2.634547    -2.448079     0.139348
H      2.123594    -0.831185     0.714505
C      2.605247    -2.214200     2.339124
H      3.491246    -1.632393     2.617322
H      2.846720    -3.281577     2.420055
C      1.375876    -1.862774     3.189642
H      1.418880    -0.816618     3.506988
H      1.284565    -2.496558     4.078981
