32
Energy = -1142.569922483 Hartree (EUMP2 CORRECTED)
O      1.368735    -0.136784    -0.286490
C      2.131720     1.081086    -0.126442
H      3.178506     0.825359    -0.318283
H      2.024269     1.462263     0.896653
C      0.039979     0.227794    -0.730836
H     -0.160530    -0.318881    -1.661598
H     -0.695695    -0.051697     0.030337
C      1.520312     2.049713    -1.123853
H      1.838432     1.799961    -2.145075
H      1.740852     3.099852    -0.913068
C      0.032078     1.738921    -0.947195
H     -0.580832     2.052585    -1.800097
O     -0.473866     2.332795     0.253056
P     -0.732835     3.986638     0.189916
O     -1.252543     4.357501    -1.184447
O      0.443873     4.712297     0.813474
O     -1.987399     3.939538     1.291049
C     -2.812863     5.104880     1.363119
H     -3.827542     4.824826     1.052625
H     -2.452280     5.896181     0.690518
C     -2.837715     5.617778     2.792442
H     -3.489833     6.502825     2.834004
O     -3.449213     4.641427     3.670074
C     -2.376998     3.944912     4.330314
H     -2.809522     3.468955     5.216476
H     -1.955496     3.186709     3.660260
C     -1.363020     5.040388     4.634323
H     -0.357480     4.649081     4.824594
H     -1.691383     5.609697     5.513019
C     -1.427988     5.895288     3.359427
H     -0.661665     5.581627     2.642745
H     -1.287688     6.961867     3.569450
