32
Energy = -1142.573139326 Hartree (EUMP2 CORRECTED)
O      0.782524    -0.467848     0.131379
C      1.508165     0.300611    -0.851789
H      2.071341    -0.412792    -1.462172
H      2.202824     0.988895    -0.352970
C     -0.444511     0.241726     0.444553
H     -1.282460    -0.438118     0.242089
H     -0.449554     0.533707     1.498383
C      0.434874     1.072429    -1.603415
H     -0.093169     0.406934    -2.299376
H      0.798423     1.954683    -2.136784
C     -0.478454     1.479080    -0.450524
H     -1.495240     1.730613    -0.772880
O      0.136709     2.576216     0.230584
P     -0.872033     3.907378     0.475162
O     -1.956582     3.482033     1.448140
O     -1.170306     4.569523    -0.846514
O      0.259364     4.836929     1.254501
C      0.581175     4.518676     2.612964
H      1.659515     4.320610     2.665570
H      0.027386     3.630438     2.943314
C      0.231712     5.689359     3.515503
H      0.428059     5.392209     4.555477
O      1.074883     6.832971     3.275048
C      0.477840     7.595022     2.200789
H      0.715797     8.645207     2.404770
H      0.926331     7.293430     1.248955
C     -1.032045     7.289676     2.219523
H     -1.355587     6.908816     1.248193
H     -1.620810     8.184187     2.454712
C     -1.192022     6.210923     3.308972
H     -1.876892     5.412610     3.006240
H     -1.545958     6.658136     4.245825
