32
Energy = -1142.562230113 Hartree (EUMP2 CORRECTED)
O      1.836793     0.644867    -0.739025
C      1.840499     1.880048    -1.492909
H      2.488734     1.714719    -2.359920
H      2.235247     2.703404    -0.887454
C      0.597108     0.600862     0.007154
H      0.144479    -0.382568    -0.171840
H      0.796738     0.728775     1.076718
C      0.377874     2.118667    -1.824291
H      0.049979     1.430272    -2.615785
H      0.146158     3.149508    -2.098109
C     -0.286235     1.745785    -0.497540
H     -1.339185     1.463507    -0.603977
O     -0.177307     2.818273     0.446249
P     -1.368052     4.000069     0.440363
O     -1.213672     4.759875     1.735778
O     -2.643927     3.373246    -0.069291
O     -0.808362     4.993533    -0.814168
C     -0.202440     6.229945    -0.470224
H     -0.635371     6.979464    -1.150429
H     -0.448149     6.512243     0.559704
C      1.333248     6.206130    -0.643858
H      1.828095     5.989051     0.307243
O      1.770684     5.174751    -1.545814
C      1.412411     5.626388    -2.857182
H      2.085985     5.126440    -3.560048
H      0.378058     5.330146    -3.074798
C      1.566835     7.163963    -2.834398
H      0.654573     7.654678    -3.189164
H      2.391909     7.503382    -3.469552
C      1.835297     7.471546    -1.347808
H      1.330841     8.382383    -1.001712
H      2.909134     7.587819    -1.164232
