32
Energy = -1142.566978992 Hartree (EUMP2 CORRECTED)
O      2.047876     0.959735    -0.934643
C      2.377848     2.329976    -0.677258
H      3.187970     2.607630    -1.357802
H      2.715199     2.450406     0.364114
C      0.803616     0.750534    -0.219917
H      0.301074    -0.093472    -0.693766
H      1.015898     0.514190     0.828077
C      1.062051     3.060361    -0.911504
H      0.896023     3.173528    -1.989254
H      0.987960     4.038236    -0.426981
C      0.033717     2.093894    -0.306871
H     -0.848426     1.992262    -0.957465
O     -0.377330     2.611620     0.952506
P     -1.404898     1.792230     2.005970
O     -2.811256     2.318855     1.817927
O     -0.701124     1.712157     3.335733
O     -1.333642     0.249652     1.332735
C     -2.461346    -0.279008     0.631578
H     -2.114692    -0.636547    -0.349126
H     -3.222811     0.499832     0.497125
C     -3.051024    -1.446877     1.402455
H     -3.948748    -1.792665     0.870179
O     -2.160462    -2.578195     1.435524
C     -1.276038    -2.407195     2.568361
H     -1.062244    -3.415704     2.940329
H     -0.346460    -1.935660     2.233511
C     -2.011263    -1.515354     3.585445
H     -1.421635    -0.624666     3.815437
H     -2.212848    -2.054588     4.518671
C     -3.322246    -1.125906     2.873926
H     -3.580557    -0.072448     3.022060
H     -4.155812    -1.746013     3.225453
