32
Energy = -1142.565081025 Hartree (EUMP2 CORRECTED)
O      1.045949    -0.520043     0.465100
C      1.974215     0.510608     0.082834
H      2.911115     0.012298    -0.183868
H      2.146445     1.202437     0.918883
C     -0.283031     0.035392     0.311542
H     -0.895417    -0.731157    -0.176201
H     -0.706573     0.285997     1.289806
C      1.277990     1.223974    -1.065418
H      1.319500     0.601138    -1.969652
H      1.678572     2.219085    -1.278517
C     -0.153572     1.318525    -0.526947
H     -0.929689     1.360723    -1.299107
O     -0.251743     2.438979     0.343371
P     -1.140186     3.800010    -0.110678
O     -0.843732     4.850702     0.918392
O     -2.508550     3.300923    -0.526762
O     -0.370017     4.315588    -1.523234
C     -0.531419     3.639342    -2.763615
H     -1.577182     3.333424    -2.895643
H      0.117643     2.752534    -2.822902
C     -0.120686     4.595114    -3.872581
H     -0.141687     4.048843    -4.826265
O     -1.064877     5.673808    -4.020724
C     -0.559520     6.777633    -3.247216
H     -1.074390     7.673996    -3.606385
H     -0.769345     6.618825    -2.184538
C      0.939722     6.763461    -3.531004
H      1.519969     7.277972    -2.757302
H      1.136924     7.247031    -4.495247
C      1.252133     5.258079    -3.602541
H      1.654459     4.902859    -2.649906
H      1.972918     5.026151    -4.394934
