32
Energy = -1142.570143319 Hartree (EUMP2 CORRECTED)
O      1.767955     0.358338     0.217790
C      2.092751     1.505120    -0.597388
H      3.038484     1.278346    -1.100115
H      2.213653     2.394534     0.034464
C      0.324642     0.291800     0.334216
H      0.013596    -0.708236     0.005343
H      0.029382     0.450592     1.376156
C      0.898648     1.661159    -1.523417
H      0.923003     0.894252    -2.309563
H      0.803840     2.646943    -1.983150
C     -0.254081     1.391183    -0.555190
H     -1.176181     1.095164    -1.065913
O     -0.491009     2.525964     0.279546
P     -1.396955     3.795152    -0.352872
O     -2.231042     4.346905     0.770195
O     -1.929271     3.377594    -1.709292
O     -0.103110     4.850912    -0.607636
C     -0.046733     5.547730    -1.849277
H     -0.912646     6.213855    -1.967896
H     -0.047005     4.837774    -2.690293
C      1.227106     6.373741    -1.866101
H      1.360183     6.784673    -2.876129
O      1.160413     7.514929    -0.993018
C      1.515737     7.061411     0.332567
H      1.983699     7.917115     0.831177
H      0.611108     6.764688     0.871163
C      2.464740     5.860520     0.146375
H      2.080262     4.992125     0.685412
H      3.475496     6.082614     0.508381
C      2.456214     5.603055    -1.373299
H      2.398625     4.537243    -1.614501
H      3.354778     6.019715    -1.844065
