32
Energy = -1142.570928980 Hartree (EUMP2 CORRECTED)
O      1.569938     0.321648     0.253120
C      1.966936     1.529860    -0.431557
H      2.827682     1.270847    -1.056136
H      2.256721     2.299008     0.296269
C      0.154975     0.428253     0.540508
H     -0.325497    -0.482867     0.161943
H     -0.001120     0.512234     1.621333
C      0.728767     1.958976    -1.199232
H      0.586143     1.314469    -2.077736
H      0.726377     3.012533    -1.493598
C     -0.364458     1.684682    -0.161860
H     -1.354604     1.525975    -0.602700
O     -0.421947     2.725075     0.819081
P     -1.204025     4.170710     0.452672
O     -0.436912     4.891478    -0.638806
O     -1.599530     4.770198     1.771639
O     -2.596617     3.541273    -0.269596
C     -2.738647     3.602173    -1.684822
H     -1.848409     3.219250    -2.198007
H     -2.893258     4.640923    -2.014962
C     -3.943442     2.753631    -2.044908
H     -4.105282     2.806397    -3.130969
O     -3.678381     1.358393    -1.752631
C     -4.352135     1.044269    -0.521860
H     -4.460165    -0.044520    -0.488703
H     -3.756547     1.392548     0.331058
C     -5.667975     1.805012    -0.622819
H     -6.160871     1.938031     0.346693
H     -6.351122     1.270120    -1.293808
C     -5.210152     3.131324    -1.245550
H     -4.944557     3.846685    -0.461849
H     -5.975500     3.581013    -1.887945
