32
Energy = -1142.572707714 Hartree (EUMP2 CORRECTED)
O      2.140225     0.634572    -0.709553
C      2.140745     1.969351    -1.259237
H      2.861709     1.971932    -2.082735
H      2.448779     2.693326    -0.493723
C      0.833366     0.395210    -0.128786
H      0.450907    -0.539001    -0.559946
H      0.919843     0.297012     0.958001
C      0.697235     2.204749    -1.673083
H      0.472647     1.646973    -2.592080
H      0.423745     3.255154    -1.802637
C     -0.043411     1.598697    -0.482314
H     -1.076409     1.328572    -0.723379
O     -0.005480     2.527435     0.603022
P     -1.447429     3.211387     1.121049
O     -2.447101     3.138065    -0.018302
O     -1.082434     4.460582     1.873870
O     -1.901827     2.084903     2.283281
C     -2.931607     1.134563     2.011570
H     -2.547547     0.137387     2.268541
H     -3.213466     1.165379     0.950639
C     -4.159121     1.427526     2.859020
H     -4.950375     0.718836     2.574672
O     -3.920954     1.199037     4.260712
C     -3.355094     2.413738     4.808064
H     -3.705723     2.470079     5.844869
H     -2.263020     2.344212     4.791070
C     -3.844658     3.575911     3.924343
H     -2.996650     4.142084     3.531702
H     -4.494793     4.258999     4.483871
C     -4.615786     2.886215     2.781000
H     -4.401783     3.329596     1.803408
H     -5.697024     2.929218     2.960352
