32
Energy = -1142.569889880 Hartree (EUMP2 CORRECTED)
O      1.439235     0.567280     1.136716
C      2.152340     1.677181     0.557921
H      3.201046     1.373720     0.482738
H      2.074761     2.558755     1.209169
C      0.047134     0.731831     0.774704
H     -0.328825    -0.259411     0.498561
H     -0.522680     1.121545     1.625878
C      1.455094     1.910854    -0.771718
H      1.749956     1.129024    -1.484300
H      1.615700     2.889305    -1.230462
C     -0.015714     1.742313    -0.382933
H     -0.625043     1.375894    -1.217168
O     -0.561569     2.960070     0.134018
P     -1.326636     3.965819    -1.006285
O     -2.810102     3.729321    -0.920701
O     -0.522210     3.879052    -2.289472
O     -0.983955     5.403671    -0.233096
C      0.032484     6.267095    -0.741402
H     -0.447823     7.143934    -1.195614
H      0.625594     5.752818    -1.509313
C      0.923476     6.716588     0.402604
H      1.718099     7.358923    -0.004394
O      0.190610     7.547405     1.336017
C     -0.162902     6.711968     2.451874
H     -0.401255     7.381177     3.284792
H     -1.034822     6.097043     2.198779
C      1.076717     5.852715     2.667424
H      0.875976     4.951208     3.257335
H      1.848797     6.442875     3.176737
C      1.481860     5.533046     1.221546
H      1.002837     4.605396     0.898508
H      2.566880     5.434038     1.100547
