32
Energy = -1142.574243110 Hartree (EUMP2 CORRECTED)
O      0.560624     0.129276     1.070001
C      1.565869     1.155273     0.894768
H      2.539615     0.665347     0.994597
H      1.456066     1.923536     1.670200
C     -0.586567     0.483255     0.261085
H     -0.768465    -0.339174    -0.443970
H     -1.462318     0.619551     0.904038
C      1.286813     1.740255    -0.479338
H      1.639973     1.060428    -1.266643
H      1.713982     2.735579    -0.630227
C     -0.242665     1.779694    -0.463448
H     -0.689615     1.855677    -1.461273
O     -0.705655     2.856310     0.356865
P     -0.619646     4.395702    -0.325633
O     -0.941534     4.264611    -1.796459
O      0.626307     5.097405     0.180028
O     -1.936711     4.966089     0.526130
C     -1.855594     6.253884     1.145639
H     -2.695613     6.855816     0.775047
H     -0.906879     6.741804     0.889611
C     -1.955807     6.131532     2.656943
H     -1.791176     7.128968     3.088829
O     -3.273250     5.740639     3.091936
C     -3.324430     4.297364     3.053997
H     -4.035233     3.997066     3.831995
H     -3.691769     3.971967     2.075052
C     -1.889459     3.795593     3.297573
H     -1.587801     3.095907     2.515743
H     -1.801240     3.297771     4.270582
C     -1.021484     5.070074     3.245047
H     -0.124357     4.939954     2.631559
H     -0.721743     5.376379     4.254507
