32
Energy = -1142.571206339 Hartree (EUMP2 CORRECTED)
O      1.655652     0.102348    -0.156357
C      1.831640     1.070867    -1.215665
H      2.499178     0.614683    -1.953755
H      2.289530     1.985454    -0.817501
C      0.335064     0.293437     0.407621
H     -0.203409    -0.660215     0.326856
H      0.422301     0.583782     1.459389
C      0.426139     1.351865    -1.717216
H      0.064550     0.513585    -2.328494
H      0.329597     2.287629    -2.272204
C     -0.344934     1.397660    -0.397417
H     -1.422593     1.246242    -0.522924
O     -0.108603     2.626624     0.300542
P     -0.946487     3.986453    -0.194928
O     -0.866532     4.996634     0.925645
O     -2.230553     3.549286    -0.862731
O      0.159512     4.455872    -1.385458
C      0.279948     5.849439    -1.673032
H     -0.389912     6.439547    -1.036355
H      0.014918     6.021724    -2.723734
C      1.714395     6.299365    -1.393387
H      2.363713     6.026476    -2.235817
O      1.760626     7.750166    -1.317535
C      1.898578     8.085874     0.073972
H      2.285016     9.109001     0.116518
H      0.922288     8.041338     0.579267
C      2.834413     7.016613     0.616855
H      2.819818     6.947961     1.710498
H      3.860454     7.227804     0.289809
C      2.268146     5.761855    -0.060502
H      1.454073     5.341292     0.537231
H      3.017663     4.979618    -0.215162
