32
Energy = -1142.572145192 Hartree (EUMP2 CORRECTED)
O      1.023425     0.157954     0.738790
C      1.687697     1.377017     0.335266
H      2.763359     1.176408     0.368601
H      1.439734     2.190647     1.028836
C     -0.266442     0.116921     0.080714
H     -0.325811    -0.829146    -0.473141
H     -1.065142     0.161862     0.827978
C      1.136177     1.667967    -1.049445
H      1.580894     0.988565    -1.789565
H      1.261217     2.701411    -1.374693
C     -0.338991     1.326219    -0.849473
H     -0.861215     1.122313    -1.790245
O     -1.018368     2.362649    -0.130549
P     -1.412462     3.761511    -0.951436
O     -2.592970     4.401917    -0.270248
O     -1.349220     3.482493    -2.442389
O     -0.015196     4.620924    -0.537672
C     -0.075530     6.032279    -0.767099
H     -0.064098     6.549119     0.200817
H     -1.004340     6.303560    -1.288470
C      1.112257     6.488922    -1.600090
H      0.950451     7.536010    -1.890529
O      2.327193     6.501888    -0.806374
C      2.983298     5.246137    -1.038826
H      4.024162     5.368940    -0.721882
H      2.504873     4.458200    -0.445248
C      2.807709     5.007980    -2.535240
H      2.902977     3.952402    -2.813164
H      3.567615     5.577308    -3.084082
C      1.399168     5.568276    -2.807117
H      0.646745     4.775642    -2.866097
H      1.368735     6.133106    -3.745769
