32
Energy = -1142.572808025 Hartree (EUMP2 CORRECTED)
O      0.897846    -0.314502    -0.629615
C      1.754091     0.731313    -1.152617
H      2.475485     0.247568    -1.818913
H      2.280837     1.234704    -0.334229
C     -0.421526     0.240037    -0.440561
H     -1.124064    -0.327789    -1.067528
H     -0.709812     0.150027     0.611852
C      0.806158     1.693603    -1.843597
H      0.457457     1.268674    -2.795255
H      1.241607     2.680898    -2.006953
C     -0.363022     1.709440    -0.854678
H     -1.299844     2.062708    -1.308623
O     -0.099157     2.455962     0.336298
P      0.407342     4.062959     0.220257
O     -0.744730     4.861518    -0.359608
O      1.815062     4.142289    -0.318296
O      0.522016     4.307979     1.856868
C     -0.687613     4.459611     2.607651
H     -0.705250     3.679549     3.379702
H     -1.563678     4.350713     1.955099
C     -0.721342     5.829761     3.262697
H     -1.688308     5.943554     3.773108
O      0.277059     5.966182     4.292583
C      1.502701     6.394536     3.655453
H      2.018380     7.029082     4.385167
H      2.118648     5.518878     3.427696
C      1.102225     7.136742     2.366241
H      1.583346     6.679205     1.498846
H      1.389122     8.194263     2.404719
C     -0.428737     6.973814     2.289377
H     -0.771728     6.742884     1.275906
H     -0.931911     7.880978     2.645542
