32
Energy = -1142.567664023 Hartree (EUMP2 CORRECTED)
O      1.288508     0.290731     0.492145
C      1.784332     1.462480    -0.194508
H      2.826359     1.254964    -0.459085
H      1.735234     2.336835     0.466848
C     -0.137901     0.207830     0.251999
H     -0.345006    -0.782579    -0.174203
H     -0.679828     0.328511     1.195377
C      0.845857     1.629890    -1.377045
H      1.061889     0.875250    -2.145862
H      0.847145     2.622420    -1.829454
C     -0.498529     1.331244    -0.718120
H     -1.272639     1.050820    -1.440196
O     -0.946576     2.435120     0.076355
P     -1.557565     3.776832    -0.708688
O     -2.600025     4.416949     0.170276
O     -1.792513     3.423432    -2.167010
O     -0.139882     4.699146    -0.631242
C     -0.286819     5.985560    -1.236549
H     -0.561217     6.707038    -0.454582
H     -1.072316     5.989803    -2.005484
C      1.029561     6.379546    -1.887332
H      0.998780     7.464443    -2.073490
O      2.173147     6.162661    -1.042559
C      2.859424     5.006057    -1.540761
H      3.889839     5.065361    -1.175750
H      2.382751     4.098354    -1.156125
C      2.722513     5.112721    -3.057469
H      2.905788     4.161740    -3.571154
H      3.434058     5.856051    -3.437859
C      1.276046     5.608123    -3.201041
H      0.579972     4.762998    -3.263031
H      1.123554     6.242351    -4.080522
