32
Energy = -1142.570769688 Hartree (EUMP2 CORRECTED)
O      0.640232    -0.535065     0.602822
C      1.556360     0.150154    -0.278909
H      2.247113    -0.604874    -0.667725
H      2.117450     0.910450     0.279925
C     -0.627648     0.169709     0.569257
H     -1.400128    -0.554216     0.278363
H     -0.852519     0.577754     1.559067
C      0.666412     0.799477    -1.326449
H      0.311148     0.045807    -2.042051
H      1.124328     1.633178    -1.864895
C     -0.483006     1.295922    -0.452825
H     -1.401815     1.473232    -1.021672
O     -0.065015     2.482175     0.224393
P     -0.864671     3.911981    -0.189589
O     -1.947904     4.161588     0.839928
O     -1.110666     3.912345    -1.678622
O      0.411325     4.937404     0.106113
C      0.789232     5.181188     1.464240
H      1.808337     4.799244     1.607240
H      0.105500     4.671496     2.156011
C      0.755858     6.675036     1.738094
H      1.061474     6.843876     2.780720
O      1.731181     7.373935     0.929918
C      1.034171     7.860817    -0.232482
H      1.654150     8.656532    -0.658504
H      0.905692     7.050688    -0.958151
C     -0.308116     8.338967     0.311945
H     -1.085424     8.372326    -0.459164
H     -0.195514     9.343760     0.737245
C     -0.615199     7.307959     1.412405
H     -1.310182     6.537319     1.066977
H     -1.050857     7.780169     2.300156
