32
Energy = -1142.567608125 Hartree (EUMP2 CORRECTED)
O      1.996163     0.227749    -0.393502
C      2.237533     1.548617    -0.931394
H      3.082134     1.461873    -1.622206
H      2.493414     2.240966    -0.119754
C      0.582270     0.108125    -0.129494
H      0.200268    -0.743333    -0.710840
H      0.421929    -0.070075     0.938544
C      0.926155     1.937409    -1.587046
H      0.796821     1.375516    -2.523169
H      0.800761     3.005482    -1.771325
C     -0.082109     1.421128    -0.555928
H     -1.083425     1.263648    -0.982080
O     -0.160535     2.225923     0.621190
P     -0.474004     3.883977     0.650481
O     -0.481231     4.409761    -0.774455
O      0.333075     4.466910     1.773632
O     -2.061597     3.847129     1.181840
C     -3.079188     3.432505     0.273036
H     -3.491237     2.474560     0.619913
H     -2.673877     3.316124    -0.742115
C     -4.177664     4.482209     0.236630
H     -4.948457     4.156885    -0.476692
O     -4.849455     4.586076     1.511254
C     -4.191031     5.640370     2.240755
H     -4.884126     5.954379     3.028088
H     -3.261110     5.265703     2.680050
C     -3.917746     6.711863     1.188261
H     -3.080213     7.361007     1.464929
H     -4.810766     7.334114     1.053644
C     -3.627244     5.889891    -0.081709
H     -2.556016     5.833905    -0.294672
H     -4.126292     6.316452    -0.959216
