32
Energy = -1142.575653614 Hartree (EUMP2 CORRECTED)
O      0.501996     0.052515     1.452988
C      1.486496     0.784897     0.690255
H      2.406454     0.191944     0.707544
H      1.670575     1.762368     1.155431
C     -0.804242     0.365743     0.909664
H     -1.285930    -0.582930     0.639027
H     -1.403185     0.885747     1.664125
C      0.862261     0.950879    -0.684290
H      0.906536     0.002220    -1.236458
H      1.299544     1.751784    -1.285494
C     -0.588000     1.262259    -0.308026
H     -1.294143     1.065059    -1.122071
O     -0.735290     2.617250     0.134138
P     -0.859630     3.811078    -1.044098
O     -1.352986     5.049087    -0.337027
O     -1.471018     3.198923    -2.281699
O      0.765512     4.023892    -1.423811
C      1.542405     4.985462    -0.710387
H      2.402417     4.463501    -0.267434
H      0.948001     5.456505     0.083438
C      2.038900     6.044054    -1.681173
H      2.709883     6.728333    -1.141073
O      2.843714     5.446601    -2.723614
C      1.986352     5.282396    -3.869954
H      2.643499     5.165534    -4.737961
H      1.358731     4.393571    -3.743500
C      1.147078     6.554597    -3.885925
H      0.221277     6.441915    -4.460447
H      1.731674     7.376187    -4.318185
C      0.887260     6.791150    -2.389543
H     -0.075509     6.375941    -2.079315
H      0.889246     7.856620    -2.133494
