32
Energy = -1142.574443936 Hartree (EUMP2 CORRECTED)
O      2.019938     0.145954     0.604565
C      2.500290     1.490853     0.496448
H      3.554799     1.439029     0.209005
H      2.407497     2.012821     1.461413
C      0.570900     0.256680     0.632770
H      0.169012    -0.648873     0.174238
H      0.215687     0.329508     1.664087
C      1.578582     2.110341    -0.544266
H      1.857813     1.743413    -1.539534
H      1.560666     3.204315    -0.549009
C      0.214138     1.552421    -0.130094
H     -0.434396     1.349656    -0.992173
O     -0.415761     2.526352     0.711893
P     -2.023912     2.227711     1.116455
O     -2.384138     3.274433     2.141845
O     -2.237160     0.741624     1.259094
O     -2.737437     2.632477    -0.350093
C     -2.723773     4.008107    -0.738025
H     -2.121130     4.103566    -1.651611
H     -2.288202     4.633586     0.052948
C     -4.145713     4.464422    -1.015634
H     -4.120337     5.514495    -1.341363
O     -4.715366     3.727050    -2.123033
C     -5.504316     2.665354    -1.553897
H     -6.192481     2.331598    -2.337440
H     -4.852747     1.841331    -1.243346
C     -6.187068     3.315855    -0.356046
H     -6.526146     2.584222     0.385518
H     -7.054068     3.894824    -0.697432
C     -5.086766     4.241431     0.188929
H     -4.535546     3.775270     1.010506
H     -5.493731     5.191180     0.553942
