32
Energy = -1142.563993415 Hartree (EUMP2 CORRECTED)
O      1.974217     0.703199     0.170496
C      1.417462     0.416299    -1.134090
H      1.799086    -0.564364    -1.437035
H      1.752567     1.176193    -1.852012
C      0.987343     1.439040     0.933792
H      0.716432     0.836867     1.812264
H      1.413620     2.393932     1.256259
C     -0.089318     0.479308    -0.950071
H     -0.455489    -0.439702    -0.471666
H     -0.649599     0.676412    -1.868152
C     -0.207895     1.660677     0.014796
H     -1.158246     1.690441     0.564646
O      0.004750     2.893589    -0.671739
P     -1.358045     3.571303    -1.437991
O     -2.336537     4.012116    -0.382078
O     -1.725574     2.667507    -2.599739
O     -0.532698     4.900795    -1.994936
C      0.330534     4.662761    -3.100278
H      0.772647     3.661470    -3.014402
H     -0.229076     4.688043    -4.046445
C      1.440787     5.721113    -3.138919
H      1.090610     6.638643    -3.622784
O      1.890649     6.117747    -1.839649
C      2.634793     4.994320    -1.334562
H      3.319618     5.388871    -0.578283
H      1.946683     4.278486    -0.871684
C      3.352548     4.387756    -2.562690
H      3.190723     3.306191    -2.613152
H      4.434098     4.557521    -2.529492
C      2.708868     5.121169    -3.760440
H      2.496289     4.454792    -4.605765
H      3.358055     5.928534    -4.117210
