32
Energy = -1142.551183608 Hartree (EUMP2 CORRECTED)
O      1.973911     0.618053     0.434909
C      1.833650     1.661272    -0.557294
H      2.669826     1.548670    -1.254109
H      1.865994     2.650938    -0.087332
C      0.653196     0.296959     0.922226
H      0.512844    -0.787126     0.813773
H      0.560704     0.580528     1.975914
C      0.465181     1.417877    -1.170739
H      0.494299     0.546339    -1.840112
H      0.082279     2.292296    -1.703666
C     -0.354439     1.088352     0.081748
H     -1.247341     0.488015    -0.119021
O     -0.688951     2.253127     0.828365
P     -1.407199     3.661319     0.230631
O     -0.325546     4.501661    -0.407438
O     -2.328157     4.140095     1.322118
O     -2.371657     3.172278    -1.068549
C     -2.849390     1.914551    -1.495119
H     -2.094840     1.395489    -2.108634
H     -3.135251     1.272892    -0.649712
C     -4.092337     2.152236    -2.343018
H     -4.336092     1.221981    -2.875162
O     -5.243619     2.455317    -1.542889
C     -5.190805     3.872408    -1.241740
H     -6.231393     4.191919    -1.122142
H     -4.641593     4.029896    -0.308936
C     -4.474192     4.538272    -2.432696
H     -3.645723     5.154311    -2.077299
H     -5.158684     5.167332    -3.013838
C     -3.950500     3.358428    -3.277480
H     -2.914889     3.510465    -3.597357
H     -4.576056     3.202368    -4.164473
