32
Energy = -1142.567613899 Hartree (EUMP2 CORRECTED)
O      1.481717     0.005266     0.086229
C      1.886571     1.096907    -0.760661
H      2.626716     0.703152    -1.462697
H      2.353239     1.888695    -0.155078
C      0.248681     0.431586     0.703166
H     -0.350417    -0.468942     0.868535
H      0.452302     0.922047     1.664262
C      0.588628     1.567275    -1.396137
H      0.299111     0.860319    -2.183881
H      0.626323     2.567742    -1.829198
C     -0.414710     1.454513    -0.240452
H     -1.391306     1.120805    -0.604752
O     -0.612360     2.656113     0.526607
P     -1.509598     3.891466    -0.193052
O     -2.024821     4.726324     0.950954
O     -2.350337     3.311568    -1.305144
O     -0.295182     4.772281    -0.973423
C      1.031054     4.835346    -0.472573
H      1.393583     3.849547    -0.169944
H      1.077795     5.498215     0.409992
C      1.907946     5.403116    -1.574462
H      2.931395     5.516892    -1.189995
O      2.005070     4.473754    -2.679444
C      1.060722     4.905174    -3.677334
H      1.362236     4.435973    -4.619128
H      0.049539     4.586323    -3.398861
C      1.190313     6.423791    -3.663110
H      0.323386     6.928269    -4.103973
H      2.088203     6.721400    -4.218148
C      1.349971     6.719159    -2.163329
H      0.379597     6.938850    -1.709584
H      2.023310     7.562838    -1.974864
