32
Energy = -1142.575212982 Hartree (EUMP2 CORRECTED)
O      1.129054    -0.189753    -0.861256
C      1.861969     1.000629    -1.234996
H      2.587944     0.698581    -1.996318
H      2.385576     1.411147    -0.363260
C     -0.203734     0.213808    -0.470796
H     -0.917465    -0.336949    -1.098419
H     -0.370074    -0.032891     0.583176
C      0.796866     1.967358    -1.721462
H      0.443092     1.679066    -2.720710
H      1.121288     3.011132    -1.733497
C     -0.305604     1.721618    -0.688071
H     -1.294649     2.049639    -1.029522
O      0.007661     2.345787     0.560614
P     -0.036238     4.035380     0.582747
O     -1.192542     4.451979    -0.309681
O      1.355856     4.594786     0.450005
O     -0.471205     4.197261     2.177895
C     -1.801936     3.831452     2.553375
H     -1.735242     3.037417     3.308490
H     -2.363206     3.463902     1.684115
C     -2.523323     5.034564     3.136485
H     -3.562001     4.743764     3.348841
O     -1.969954     5.440465     4.403181
C     -0.869398     6.337578     4.128515
H     -0.846039     7.052338     4.958884
H      0.065344     5.768689     4.104931
C     -1.153042     6.988593     2.761438
H     -0.319298     6.815658     2.077277
H     -1.306750     8.070166     2.854592
C     -2.426906     6.282702     2.256346
H     -2.365659     6.026791     1.193890
H     -3.310186     6.909279     2.430193
