32
Energy = -1142.567919995 Hartree (EUMP2 CORRECTED)
O      1.398159     0.162512    -0.154016
C      1.708951     1.576207    -0.141918
H      2.728218     1.678350    -0.527069
H      1.655848     1.968866     0.880664
C     -0.029978     0.026983    -0.331545
H     -0.196778    -0.625420    -1.199662
H     -0.476699    -0.422142     0.561804
C      0.636548     2.211683    -1.008982
H      0.835125     2.010683    -2.071193
H      0.522400     3.285764    -0.842667
C     -0.598129     1.429037    -0.556575
H     -1.402723     1.435673    -1.298788
O     -1.097662     1.880320     0.701999
P     -1.663350     3.453946     0.900441
O     -0.476731     4.364891     1.111342
O     -2.855877     3.382064     1.822348
O     -2.209482     3.692215    -0.686055
C     -3.492914     4.294230    -0.861381
H     -3.366315     5.368340    -1.056080
H     -4.096338     4.160160     0.046382
C     -4.201355     3.653152    -2.039647
H     -5.206998     4.089816    -2.114680
O     -3.552480     3.972610    -3.294419
C     -2.704453     2.862240    -3.622138
H     -2.486779     2.934153    -4.692658
H     -1.772213     2.921226    -3.047885
C     -3.533727     1.641074    -3.234690
H     -2.928083     0.739491    -3.087417
H     -4.267045     1.436495    -4.024021
C     -4.234870     2.111211    -1.948492
H     -3.694792     1.783709    -1.055408
H     -5.261974     1.736612    -1.880586
