32
Energy = -1142.566055768 Hartree (EUMP2 CORRECTED)
O      1.161420    -0.224407     0.024108
C      1.940515     0.951815     0.315661
H      2.991350     0.645804     0.310334
H      1.675626     1.350158     1.304586
C     -0.097098     0.220301    -0.543023
H     -0.270301    -0.373713    -1.448123
H     -0.910743     0.058623     0.171098
C      1.553234     1.934258    -0.777979
H      2.030280     1.646416    -1.725229
H      1.777418     2.978295    -0.549665
C      0.040540     1.718587    -0.840850
H     -0.414136     1.983071    -1.802080
O     -0.575206     2.457320     0.215628
P     -1.576686     3.731267    -0.220346
O     -2.129149     4.289141     1.060022
O     -2.407729     3.306944    -1.416604
O     -0.371184     4.767471    -0.812723
C     -0.637126     5.419592    -2.051532
H     -1.390474     6.205538    -1.892617
H     -1.033261     4.718824    -2.798389
C      0.655492     6.046778    -2.552437
H      0.386746     6.786385    -3.321422
O      1.367585     6.780305    -1.543206
C      2.435618     5.936650    -1.090705
H      3.166171     6.585746    -0.598017
H      2.047777     5.201658    -0.375704
C      2.946960     5.274902    -2.369535
H      3.533568     4.368495    -2.180053
H      3.574805     5.985041    -2.921099
C      1.636953     4.998460    -3.125810
H      1.272097     3.990215    -2.902577
H      1.743968     5.090072    -4.211741
