32
Energy = -1142.557274036 Hartree (EUMP2 CORRECTED)
O      1.138829    -0.074063     0.474274
C      1.986043     0.997822     0.020188
H      2.945562     0.549350    -0.255568
H      2.136547     1.733628     0.821511
C     -0.232256     0.356508     0.288909
H     -0.761761    -0.464829    -0.208975
H     -0.695468     0.571697     1.257310
C      1.216115     1.618811    -1.134679
H      1.272790     0.968056    -2.018166
H      1.553293     2.628035    -1.387828
C     -0.206317     1.636351    -0.562466
H     -0.991478     1.612738    -1.322632
O     -0.349652     2.752052     0.302454
P     -1.245561     4.166128     0.087849
O     -0.228172     5.279205    -0.025994
O     -2.397830     4.137916     1.056091
O     -1.968087     3.975790    -1.427892
C     -1.204844     3.806927    -2.616012
H     -0.287523     3.236870    -2.453417
H     -0.910485     4.794784    -3.009399
C     -2.085520     3.100799    -3.631753
H     -1.537253     3.015828    -4.580863
O     -2.360450     1.742372    -3.212747
C     -3.677544     1.735668    -2.629601
H     -4.019769     0.696154    -2.636737
H     -3.633974     2.116657    -1.602266
C     -4.475054     2.667068    -3.533373
H     -5.393313     3.034332    -3.062139
H     -4.740730     2.142476    -4.459152
C     -3.459576     3.786223    -3.807491
H     -3.565602     4.585463    -3.068628
H     -3.570148     4.216736    -4.809023
