32
Energy = -1142.569532207 Hartree (EUMP2 CORRECTED)
O      0.799366    -0.313381    -0.050703
C      1.761460     0.746002     0.151474
H      2.751062     0.278538     0.147274
H      1.586691     1.231479     1.120688
C     -0.360626     0.262429    -0.698545
H     -0.561980    -0.328476    -1.601203
H     -1.223005     0.220268    -0.025664
C      1.508777     1.714046    -0.990493
H      1.910344     1.304071    -1.927443
H      1.883103     2.729256    -0.837960
C     -0.019254     1.716024    -1.029535
H     -0.430794     2.027106    -1.998502
O     -0.546401     2.529897     0.024821
P     -0.765883     4.145551    -0.363370
O     -2.071647     4.346665    -1.099468
O      0.537910     4.702114    -0.912030
O     -0.930270     4.584568     1.237255
C     -1.476292     5.880783     1.494666
H     -2.413876     5.751486     2.050064
H     -1.699481     6.415840     0.560749
C     -0.495208     6.684457     2.330769
H     -0.939923     7.669019     2.538322
O     -0.305936     6.061934     3.624827
C      0.926491     5.322985     3.554772
H      1.243527     5.140793     4.586804
H      0.762401     4.372043     3.034593
C      1.853120     6.235695     2.761565
H      2.708240     5.704133     2.329195
H      2.228808     7.033105     3.415014
C      0.905363     6.793209     1.688382
H      0.955151     6.187846     0.777283
H      1.142051     7.830896     1.426596
