32
Energy = -1142.567557669 Hartree (EUMP2 CORRECTED)
O      1.685881    -0.023803    -0.295668
C      1.752766     0.913168    -1.393174
H      2.205894     0.381208    -2.235637
H      2.378734     1.772233    -1.118627
C      0.567652     0.358745     0.541992
H     -0.068259    -0.527122     0.665261
H      0.931796     0.694501     1.518405
C      0.313533     1.346166    -1.611967
H     -0.249232     0.546549    -2.112726
H      0.202968     2.283945    -2.161660
C     -0.166257     1.496686    -0.167392
H     -1.255088     1.440968    -0.062064
O      0.306074     2.727211     0.397430
P     -0.627953     4.093959     0.186957
O     -0.129511     5.137523     1.157336
O     -2.082835     3.694733     0.061202
O     -0.045203     4.477075    -1.353731
C     -0.327181     5.792697    -1.835006
H     -0.338972     5.721962    -2.928127
H     -1.316855     6.131949    -1.499165
C      0.761711     6.790987    -1.442207
H      1.676685     6.223048    -1.219354
O      1.004521     7.647370    -2.602162
C      1.377402     8.964443    -2.154830
H      2.336585     9.234230    -2.614573
H      0.613860     9.674404    -2.502547
C      1.432295     8.903586    -0.626357
H      1.165171     9.858820    -0.159616
H      2.438636     8.630289    -0.286349
C      0.452745     7.772386    -0.323178
H     -0.583491     8.123167    -0.425015
H      0.559097     7.301748     0.656200
