32
Energy = -1142.560776881 Hartree (EUMP2 CORRECTED)
O     -0.701696    -0.574060    -1.193490
C      0.179218    -0.201193    -2.287695
H     -0.445346     0.000332    -3.169591
H      0.828582    -1.055270    -2.510046
C     -0.628567     0.456846    -0.187463
H     -1.630998     0.593489     0.229231
H      0.069273     0.176765     0.613634
C      0.945855     1.034094    -1.829289
H      1.252781     1.680166    -2.657804
H      1.838625     0.782110    -1.253826
C     -0.087597     1.686335    -0.909200
H     -0.887364     2.124967    -1.528042
O      0.297826     2.677900     0.024355
P      1.823314     3.363698     0.252752
O      1.717892     4.816082    -0.158244
O      2.909642     2.429359    -0.216953
O      1.825150     3.276648     1.918188
C      0.950497     4.140696     2.647487
H      0.219627     3.518049     3.180022
H      0.424029     4.825081     1.968828
C      1.760473     4.951443     3.644774
H      1.073209     5.600459     4.206497
O      2.378687     4.094175     4.632607
C      3.722209     3.841391     4.179648
H      4.287488     3.499009     5.052739
H      3.716094     3.068101     3.404206
C      4.185162     5.184053     3.623281
H      5.007630     5.080245     2.907220
H      4.518528     5.827845     4.446489
C      2.906229     5.741008     2.973595
H      2.892034     5.573406     1.892887
H      2.797775     6.817330     3.148959
