32
Energy = -1142.553872256 Hartree (EUMP2 CORRECTED)
O      1.632058     0.107437    -0.080591
C      1.977865     1.237604    -0.902948
H      2.762179     0.901700    -1.588370
H      2.370680     2.050782    -0.275842
C      0.295074     0.345626     0.423749
H     -0.249509    -0.600976     0.335491
H      0.336929     0.653061     1.475024
C      0.668861     1.629431    -1.568812
H      0.433546     0.909784    -2.363855
H      0.633627     2.638762    -1.988370
C     -0.326098     1.470498    -0.415739
H     -1.330862     1.230691    -0.776191
O     -0.388800     2.640117     0.413586
P     -1.311929     3.934269    -0.180265
O     -1.885959     4.610472     1.039346
O     -2.110267     3.457953    -1.368096
O     -0.084856     4.919690    -0.791139
C      1.209568     4.928827    -0.221043
H      1.275522     5.787514     0.467978
H      1.396131     4.026072     0.372060
C      2.298472     5.054965    -1.312352
H      2.713333     4.074232    -1.564400
O      1.812344     5.587663    -2.548706
C      1.582115     6.981871    -2.295494
H      1.637313     7.491027    -3.262081
H      0.578787     7.107606    -1.872087
C      2.685120     7.415200    -1.300545
H      2.249952     7.915561    -0.429452
H      3.401220     8.107361    -1.756146
C      3.359293     6.083240    -0.907178
H      3.622676     6.033233     0.156278
H      4.269619     5.918755    -1.494347
