32
Energy = -1142.572645207 Hartree (EUMP2 CORRECTED)
O      1.659244    -0.159761     0.859916
C      2.370483     1.059100     0.599980
H      3.425315     0.795395     0.475138
H      2.261202     1.758706     1.441396
C      0.260416     0.108461     0.568989
H     -0.141044    -0.778752     0.071019
H     -0.290046     0.285634     1.496960
C      1.692624     1.606263    -0.646854
H      1.993445     1.010161    -1.517825
H      1.880357     2.666158    -0.842562
C      0.219221     1.366891    -0.319310
H     -0.404174     1.213965    -1.207170
O     -0.237024     2.512152     0.406492
P     -1.888907     2.599321     0.741518
O     -2.009642     3.204315     2.120846
O     -2.537870     1.313187     0.292826
O     -2.330081     3.762524    -0.379021
C     -1.878066     5.102294    -0.169441
H     -1.207145     5.371457    -0.996071
H     -1.337887     5.187861     0.783019
C     -3.071934     6.041568    -0.152561
H     -2.705594     7.068190    -0.007387
O     -3.745532     6.047368    -1.433241
C     -4.845619     5.124131    -1.327163
H     -5.540588     5.370624    -2.136663
H     -4.482791     4.096633    -1.437654
C     -5.401853     5.370313     0.071273
H     -5.977426     4.518959     0.450740
H     -6.052783     6.253152     0.057466
C     -4.131089     5.636742     0.896499
H     -3.799994     4.744021     1.434659
H     -4.283332     6.435536     1.631126
