32
Energy = -1142.569086392 Hartree (EUMP2 CORRECTED)
O      1.873892    -0.106704    -0.165575
C      2.691588     1.061357    -0.033204
H      3.564075     0.931099    -0.679850
H      3.030353     1.157636     1.010911
C      0.622393     0.278338     0.450314
H     -0.131377    -0.456329     0.176372
H      0.728286     0.298093     1.541437
C      1.776224     2.225075    -0.421436
H      1.871979     2.454682    -1.487942
H      1.963570     3.137738     0.152446
C      0.364568     1.697605    -0.092049
H     -0.241001     1.621092    -1.007541
O     -0.278044     2.615519     0.790378
P     -1.620049     2.191143     1.711095
O     -1.636822     3.172277     2.858530
O     -1.713462     0.691925     1.842515
O     -2.833467     2.606927     0.630019
C     -3.148830     3.991769     0.465364
H     -3.025375     4.246310    -0.596198
H     -2.480875     4.616096     1.073226
C     -4.588186     4.245514     0.879795
H     -4.788495     5.322943     0.792304
O     -5.527869     3.605419    -0.006449
C     -5.718970     2.252007     0.465705
H     -6.757932     1.992943     0.231449
H     -5.041379     1.580680    -0.070934
C     -5.409447     2.255460     1.974882
H     -4.624841     1.530920     2.204023
H     -6.297444     2.005652     2.567712
C     -4.926358     3.690328     2.264880
H     -4.057575     3.709353     2.930066
H     -5.733340     4.289614     2.704036
