32
Energy = -1142.572451444 Hartree (EUMP2 CORRECTED)
O      0.206099    -0.782575    -0.504890
C     -1.091866    -0.280179    -0.134984
H     -1.127128    -0.073155     0.943079
H     -1.819110    -1.059949    -0.383742
C      1.050902     0.353877    -0.831674
H      1.862554     0.443087    -0.104959
H      1.465242     0.177819    -1.832192
C     -1.238473     1.005859    -0.933278
H     -1.996649     1.694062    -0.549393
H     -1.446082     0.772080    -1.985936
C      0.160671     1.597823    -0.782793
H      0.419163     2.317569    -1.566424
O      0.231761     2.197894     0.513116
P      1.146127     3.610905     0.620021
O      0.208938     4.797552     0.526146
O      2.372416     3.446294    -0.246674
O      1.632319     3.421196     2.198415
C      0.783737     3.881491     3.254272
H      0.597138     3.034988     3.928046
H     -0.166726     4.252393     2.849748
C      1.470688     4.998829     4.021103
H      0.772502     5.372907     4.783507
O      2.623270     4.531557     4.748576
C      3.753616     4.573497     3.846887
H      4.627459     4.804938     4.466570
H      3.881961     3.591792     3.380330
C      3.444824     5.649631     2.788645
H      3.492890     5.221457     1.784792
H      4.153822     6.484149     2.844725
C      2.011237     6.110407     3.118968
H      1.397156     6.240231     2.222388
H      2.028274     7.049921     3.684702
