32
Energy = -1142.569221053 Hartree (EUMP2 CORRECTED)
O      0.772622     0.240652     1.056572
C      1.554748     0.771700    -0.039999
H      2.193300    -0.042263    -0.397733
H      2.179089     1.600776     0.315587
C     -0.514183     0.901829     1.052247
H     -1.289597     0.132520     0.934379
H     -0.658823     1.429374     2.000862
C      0.533056     1.265813    -1.049194
H      0.096521     0.420175    -1.598116
H      0.923557     2.011272    -1.747422
C     -0.511877     1.881726    -0.116404
H     -1.501302     1.998619    -0.577104
O     -0.060488     3.141752     0.385762
P     -0.241084     4.462756    -0.671014
O     -1.687039     4.527372    -1.103815
O      0.915125     4.433285    -1.646705
O     -0.009569     5.646971     0.472529
C      0.810122     5.479201     1.627842
H      1.628730     6.209160     1.573025
H      1.230031     4.467376     1.677181
C     -0.021592     5.752246     2.871038
H      0.623799     5.632314     3.753633
O     -0.463684     7.130071     2.892961
C     -1.821603     7.139135     2.413321
H     -2.261619     8.088699     2.734631
H     -1.834317     7.062267     1.320427
C     -2.441789     5.907150     3.059928
H     -3.351651     5.572903     2.549607
H     -2.682954     6.123613     4.108159
C     -1.298917     4.886125     2.953298
H     -1.398527     4.283679     2.047772
H     -1.264693     4.207442     3.813595
