32
Energy = -1142.567285824 Hartree (EUMP2 CORRECTED)
O     -1.000382    -0.422289     0.737044
C     -0.801423    -0.624447    -0.689400
H     -1.786818    -0.795553    -1.145021
H     -0.194565    -1.526672    -0.823937
C     -0.648813     0.939529     1.051837
H     -1.355882     1.307959     1.801327
H      0.372563     0.995874     1.452417
C     -0.133632     0.637099    -1.225086
H     -0.362706     0.842651    -2.273411
H      0.952636     0.594014    -1.114201
C     -0.709547     1.689797    -0.273446
H     -1.762807     1.867475    -0.541999
O     -0.099662     2.969241    -0.148064
P      1.225503     3.452589    -1.062603
O      1.632489     4.783863    -0.481729
O      0.963238     3.171720    -2.520825
O      2.356726     2.289193    -0.609597
C      3.017347     2.422248     0.650543
H      2.665581     3.315853     1.183688
H      2.799484     1.526411     1.248488
C      4.516508     2.518844     0.422103
H      5.018135     2.570310     1.399497
O      5.011640     1.313944    -0.208827
C      5.114217     1.592641    -1.618164
H      5.791544     0.841389    -2.037397
H      4.126831     1.519052    -2.087146
C      5.648417     3.018952    -1.672904
H      5.449994     3.508052    -2.632813
H      6.731775     3.012566    -1.500128
C      4.908268     3.690616    -0.504863
H      4.010800     4.215682    -0.843188
H      5.541074     4.415157     0.020035
