32
Energy = -1142.573748009 Hartree (EUMP2 CORRECTED)
O      1.139750    -0.173379    -0.809972
C      1.711843     0.996650    -1.434360
H      2.296043     0.643385    -2.289726
H      2.368080     1.520190    -0.727296
C     -0.085397     0.233453    -0.151187
H     -0.882339    -0.434043    -0.502910
H      0.026973     0.139969     0.934179
C      0.511505     1.858148    -1.790563
H     -0.005031     1.444384    -2.667081
H      0.748276     2.911923    -1.963283
C     -0.343043     1.691283    -0.533167
H     -1.403488     1.914441    -0.692217
O      0.172867     2.521505     0.508591
P     -0.575074     4.009712     0.794130
O     -1.985308     3.907465     0.238353
O      0.376435     5.130281     0.474661
O     -0.632728     3.903634     2.455779
C     -1.524333     2.950108     3.036370
H     -0.930340     2.244058     3.631886
H     -2.071066     2.401252     2.257384
C     -2.526527     3.659077     3.931700
H     -3.243459     2.914260     4.305570
O     -1.907072     4.220432     5.104715
C     -1.415430     5.533211     4.749319
H     -1.495636     6.142937     5.656355
H     -0.366437     5.458198     4.446316
C     -2.290045     6.038482     3.586224
H     -1.667310     6.299178     2.727572
H     -2.871977     6.921948     3.874248
C     -3.208603     4.847233     3.249703
H     -3.308393     4.693394     2.170626
H     -4.202444     4.988662     3.691661
