32
Energy = -1142.566609879 Hartree (EUMP2 CORRECTED)
O      1.694052     0.750670    -1.534519
C      2.478030     1.873683    -1.092839
H      3.299607     1.986506    -1.807299
H      2.862766     1.688983    -0.082955
C      0.427718     0.853570    -0.845766
H     -0.336203     0.499271    -1.547185
H      0.432040     0.225360     0.045631
C      1.469821     3.014077    -1.102928
H      1.756793     3.888443    -0.511369
H      1.275464     3.318459    -2.140031
C      0.223663     2.350856    -0.495374
H     -0.697280     2.731605    -0.953997
O      0.109665     2.706418     0.889948
P      0.517421     1.740823     2.198796
O      0.376263     2.648735     3.396366
O      1.729656     0.900524     1.883750
O     -0.782777     0.676645     2.178661
C     -2.076048     1.204774     2.481485
H     -2.707007     1.108121     1.587172
H     -2.007970     2.262810     2.768108
C     -2.686355     0.410727     3.623336
H     -3.690728     0.808553     3.829200
O     -2.885492    -0.970623     3.240814
C     -1.756621    -1.708843     3.745296
H     -2.055639    -2.761891     3.768069
H     -0.895053    -1.572794     3.082731
C     -1.502202    -1.099967     5.119674
H     -0.482829    -1.279767     5.478425
H     -2.207609    -1.523471     5.845270
C     -1.788259     0.391980     4.880090
H     -0.870651     0.956281     4.690477
H     -2.295874     0.853100     5.734893
