32
Energy = -1142.571134081 Hartree (EUMP2 CORRECTED)
O      1.812882     0.160233    -0.812476
C      2.067538     1.485437    -1.330387
H      2.756564     1.367357    -2.172368
H      2.530807     2.109952    -0.556019
C      0.498533     0.170421    -0.205668
H     -0.074861    -0.654064    -0.649230
H      0.586952     0.022627     0.875635
C      0.692823     2.014554    -1.699930
H      0.339107     1.536460    -2.623642
H      0.624440     3.099685    -1.804255
C     -0.130728     1.532590    -0.505676
H     -1.199874     1.468867    -0.734514
O      0.101330     2.367619     0.630296
P     -0.783331     3.797223     0.785589
O     -1.565623     3.983917    -0.502290
O      0.117483     4.824957     1.407790
O     -1.859252     3.343319     1.985478
C     -2.965090     2.507547     1.652056
H     -2.832025     1.534550     2.145345
H     -3.035419     2.366735     0.564463
C     -4.248540     3.160349     2.138499
H     -5.094256     2.509390     1.874039
O     -4.273417     3.262265     3.579267
C     -3.778144     4.574617     3.910363
H     -4.110158     4.784381     4.932396
H     -2.684922     4.586278     3.855340
C     -4.398172     5.485454     2.854462
H     -3.823048     6.406117     2.709353
H     -5.418711     5.754952     3.152405
C     -4.412195     4.597771     1.596423
H     -3.587228     4.839122     0.920402
H     -5.349314     4.702962     1.038154
