32
Energy = -1142.553981037 Hartree (EUMP2 CORRECTED)
O      1.180963    -0.318126    -0.161423
C      1.731569     0.725058    -0.985502
H      2.490639     0.258162    -1.621472
H      2.207826     1.490678    -0.357227
C     -0.138528     0.117555     0.253387
H     -0.810735    -0.737509     0.119864
H     -0.122209     0.417666     1.306784
C      0.529061     1.286336    -1.726977
H      0.225173     0.588617    -2.518395
H      0.664354     2.278512    -2.166210
C     -0.527307     1.318279    -0.619190
H     -1.542019     1.246063    -1.020879
O     -0.411576     2.494857     0.187376
P     -1.250199     3.878281    -0.338140
O     -1.908680     4.464292     0.883221
O     -1.973795     3.524140    -1.617148
O      0.044899     4.865845    -0.764670
C      1.390475     4.640473    -0.386646
H      1.672889     5.317728     0.435191
H      1.514103     3.607935    -0.041757
C      2.312620     4.902940    -1.571946
H      1.735289     4.739306    -2.489755
O      2.763650     6.287010    -1.620290
C      4.184718     6.311716    -1.459993
H      4.555023     7.210714    -1.962577
H      4.453633     6.367786    -0.391869
C      4.665426     4.999429    -2.065643
H      5.680854     4.724491    -1.757435
H      4.635069     5.062700    -3.159764
C      3.589199     4.046756    -1.545648
H      3.822838     3.747846    -0.514350
H      3.477267     3.133903    -2.139085
