32
Energy = -1142.564697271 Hartree (EUMP2 CORRECTED)
O      0.997668    -0.510506     0.071259
C      1.884880     0.619306    -0.033592
H      2.873811     0.223586    -0.284764
H      1.933089     1.157941     0.922752
C     -0.346467    -0.019184    -0.156612
H     -0.824828    -0.709519    -0.860970
H     -0.905683     0.001518     0.784705
C      1.250548     1.490741    -1.105033
H      1.419267     1.049096    -2.096925
H      1.586843     2.530328    -1.094595
C     -0.228397     1.405800    -0.713796
H     -0.922914     1.578460    -1.544686
O     -0.495835     2.326378     0.343789
P     -1.261178     3.774226    -0.056693
O     -1.422356     4.510190     1.241024
O     -2.358204     3.468647    -1.056143
O     -0.012259     4.533624    -0.908543
C     -0.076847     4.614494    -2.326880
H     -1.107161     4.822801    -2.635041
H      0.235615     3.672072    -2.808961
C      0.856136     5.735104    -2.776903
H      0.578655     6.000814    -3.807937
O      0.702686     6.934978    -2.009172
C      1.768508     6.945195    -1.045774
H      1.856063     7.973329    -0.682255
H      1.522615     6.271098    -0.217283
C      2.975647     6.456153    -1.844205
H      3.795146     6.100632    -1.208971
H      3.352387     7.270296    -2.474818
C      2.351532     5.341850    -2.701565
H      2.458953     4.374042    -2.200377
H      2.805921     5.262642    -3.694945
