32
Energy = -1142.568353132 Hartree (EUMP2 CORRECTED)
O     -0.107423    -0.732005     0.078261
C      0.582052    -0.244402    -1.092665
H      0.437779    -0.988926    -1.881334
H      1.648566    -0.120075    -0.869590
C     -0.151307     0.410401     0.951600
H     -0.949618     0.229305     1.677758
H      0.810082     0.543602     1.459510
C     -0.073267     1.105341    -1.370326
H     -1.004954     0.954357    -1.929470
H      0.564564     1.803709    -1.915660
C     -0.411200     1.634114     0.042724
H     -1.463448     1.934055     0.090953
O      0.278159     2.806485     0.505517
P      1.915343     3.052051     0.336136
O      2.667602     1.747239     0.503682
O      2.251606     4.311540     1.096032
O      1.890129     3.412101    -1.313724
C      3.146905     3.740264    -1.907557
H      3.414942     2.948396    -2.619995
H      3.943159     3.814717    -1.152856
C      3.011204     5.067342    -2.632711
H      3.966397     5.302258    -3.125013
O      2.036905     4.960059    -3.699748
C      0.808536     5.522982    -3.205013
H      0.199281     5.767354    -4.081574
H      0.289469     4.792018    -2.574290
C      1.257512     6.731956    -2.393894
H      0.500317     7.067177    -1.676433
H      1.489768     7.562434    -3.072333
C      2.526255     6.203980    -1.706770
H      2.302642     5.806571    -0.711238
H      3.290932     6.981904    -1.600101
