32
Energy = -1142.559973760 Hartree (EUMP2 CORRECTED)
O      1.976774     1.024842     0.403427
C      1.517173     0.529409    -0.878951
H      1.891144    -0.494707    -0.984558
H      1.939693     1.152426    -1.677660
C      0.912152     1.797375     1.006620
H      0.541885     1.256209     1.889628
H      1.305423     2.772343     1.309488
C      0.001220     0.643947    -0.846100
H     -0.439407    -0.199822    -0.297053
H     -0.469947     0.738718    -1.828052
C     -0.171586     1.937927    -0.051123
H     -1.171324     2.058842     0.387085
O      0.165487     3.063536    -0.859923
P     -1.120632     3.735322    -1.756814
O     -2.025666     4.498564    -0.826025
O     -1.608483     2.642782    -2.688540
O     -0.188566     4.834899    -2.583506
C      1.049139     4.418009    -3.145189
H      1.356885     3.466191    -2.701213
H      0.923053     4.257203    -4.226928
C      2.152843     5.482884    -2.922170
H      2.272913     6.104910    -3.816021
O      1.874811     6.399083    -1.863206
C      2.116014     5.688704    -0.629499
H      2.473945     6.434676     0.088098
H      1.178968     5.249694    -0.274912
C      3.160834     4.598121    -0.956095
H      2.738778     3.605833    -0.773431
H      4.068272     4.695888    -0.349726
C      3.448936     4.815986    -2.453836
H      3.675538     3.883362    -2.985407
H      4.286912     5.508753    -2.597038
