32
Energy = -1142.569903643 Hartree (EUMP2 CORRECTED)
O      1.898878     0.604106     0.119605
C      2.130017     1.562900    -0.938483
H      2.946056     1.168132    -1.552381
H      2.429251     2.526518    -0.506762
C      0.489507     0.632091     0.452812
H      0.086992    -0.377968     0.296550
H      0.365117     0.923233     1.500385
C      0.796891     1.683035    -1.656238
H      0.632285     0.809701    -2.302592
H      0.657426     2.599536    -2.234197
C     -0.168860     1.651827    -0.473102
H     -1.188702     1.361664    -0.755403
O     -0.164099     2.909477     0.205982
P     -1.260584     4.076504    -0.340677
O     -2.489582     4.057522     0.538687
O     -1.312118     3.983350    -1.848755
O     -0.287604     5.362115     0.090695
C     -0.743701     6.335733     1.029808
H     -1.548718     5.925703     1.649296
H     -1.127048     7.209958     0.478150
C      0.424771     6.773915     1.898815
H      0.136587     7.697510     2.420068
O      0.734971     5.829743     2.935555
C      1.606616     4.825230     2.363483
H      2.262774     4.496427     3.176844
H      1.012025     3.982075     2.001759
C      2.360794     5.508673     1.205324
H      2.189576     4.960196     0.277051
H      3.439761     5.557923     1.394699
C      1.739100     6.916650     1.123962
H      1.576844     7.239273     0.090540
H      2.375847     7.652929     1.629251
