32
Energy = -1142.569741330 Hartree (EUMP2 CORRECTED)
O      1.557581     0.260134    -0.326036
C      1.708759     1.347018    -1.264967
H      2.455380     1.039889    -2.005804
H      2.061783     2.240553    -0.736036
C      0.155307     0.146040     0.026439
H     -0.237856    -0.789569    -0.399186
H      0.049313     0.116472     1.108619
C      0.315957     1.573135    -1.838125
H      0.087945     0.822398    -2.606486
H      0.165729     2.576454    -2.246597
C     -0.548375     1.342910    -0.600412
H     -1.597205     1.115506    -0.826333
O     -0.446264     2.541227     0.165389
P     -1.370273     2.729221     1.568776
O     -2.056050     1.400602     1.828431
O     -2.061286     4.061821     1.495742
O     -0.136883     2.925624     2.680206
C      0.620564     1.800685     3.111936
H      1.433603     1.596344     2.401414
H     -0.027012     0.914985     3.194675
C      1.194538     2.120953     4.480369
H      1.753564     1.245352     4.838523
O      2.157589     3.196697     4.411709
C      1.453463     4.405702     4.749310
H      2.212763     5.145438     5.022690
H      0.873772     4.754438     3.887852
C      0.543461     3.989125     5.900234
H     -0.303450     4.670396     6.037372
H      1.120783     3.956233     6.832219
C      0.104723     2.576898     5.478187
H     -0.865200     2.605906     4.974054
H      0.032036     1.894914     6.332723
