32
Energy = -1142.568380085 Hartree (EUMP2 CORRECTED)
O      1.160841     0.164624     1.311979
C      1.651097     1.517916     1.207130
H      2.717016     1.487824     1.453130
H      1.125191     2.167712     1.919319
C      0.007424     0.052484     0.443472
H      0.155221    -0.838040    -0.179749
H     -0.903728    -0.057732     1.040260
C      1.336258     1.922632    -0.222691
H      2.036205     1.437523    -0.916698
H      1.330055     2.998952    -0.404889
C     -0.066232     1.337787    -0.389445
H     -0.331484     1.134373    -1.433423
O     -1.036246     2.192812     0.218026
P     -1.839702     3.333405    -0.707239
O     -2.035445     4.571092     0.131856
O     -2.963342     2.647723    -1.458168
O     -0.598308     3.598201    -1.825390
C     -0.494573     4.887706    -2.427071
H      0.504105     5.289609    -2.206013
H     -1.243074     5.576278    -2.011785
C     -0.658768     4.764561    -3.931627
H     -0.547869     5.763902    -4.378847
O      0.418115     3.965796    -4.486608
C     -0.122859     2.663816    -4.764706
H      0.549361     2.188890    -5.486944
H     -0.165290     2.071177    -3.842337
C     -1.520852     2.952602    -5.293428
H     -2.182637     2.080393    -5.253063
H     -1.455070     3.300364    -6.332206
C     -1.974540     4.076167    -4.351507
H     -2.479057     3.649388    -3.478143
H     -2.656945     4.782030    -4.838556
