32
Energy = -1142.568014607 Hartree (EUMP2 CORRECTED)
O      1.361485     0.024349     0.331280
C      1.744341     1.386327     0.621328
H      2.825315     1.381979     0.791787
H      1.227274     1.741695     1.521761
C      0.177404     0.069166    -0.500763
H      0.376871    -0.543675    -1.389335
H     -0.680636    -0.334583     0.045732
C      1.297117     2.170581    -0.600987
H      1.979207     1.971453    -1.439041
H      1.206331     3.248304    -0.445578
C     -0.070440     1.537608    -0.859330
H     -0.426615     1.651142    -1.889397
O     -1.021163     2.052633     0.067223
P     -2.024318     3.334803    -0.317517
O     -2.205904     4.158855     0.929239
O     -3.181681     2.825755    -1.156519
O     -0.971819     4.109341    -1.399552
C     -1.588436     5.103439    -2.226365
H     -1.165573     6.080973    -1.960278
H     -2.674366     5.126898    -2.063835
C     -1.332983     4.830199    -3.698001
H     -1.858584     5.601975    -4.278610
O      0.067922     4.991575    -4.031304
C      0.645098     3.677907    -4.056912
H      1.575257     3.750459    -4.630303
H      0.863761     3.349090    -3.035921
C     -0.427773     2.811631    -4.708146
H     -0.307495     1.744874    -4.485321
H     -0.387940     2.940514    -5.796732
C     -1.725480     3.400921    -4.130039
H     -2.092182     2.841995    -3.263550
H     -2.529764     3.420608    -4.873822
