32
Energy = -1142.559389987 Hartree (EUMP2 CORRECTED)
O      1.257314     0.160990     0.372053
C      1.883111     1.316860    -0.229590
H      2.864467     0.994058    -0.591148
H      2.009177     2.108866     0.520327
C     -0.176513     0.312958     0.232270
H     -0.556758    -0.590837    -0.261441
H     -0.636518     0.418690     1.220187
C      0.917704     1.755743    -1.316123
H      0.980787     1.070291    -2.172891
H      1.059501     2.787115    -1.649109
C     -0.424930     1.568001    -0.604063
H     -1.271261     1.464493    -1.292430
O     -0.683007     2.643532     0.307820
P     -1.401376     4.029849    -0.306617
O     -1.776342     4.890835     0.872987
O     -2.332130     3.622898    -1.426632
O     -0.037999     4.699710    -1.046928
C      0.398026     5.978133    -0.619531
H     -0.389209     6.724361    -0.799853
H      0.596342     5.980365     0.460324
C      1.686017     6.350653    -1.402869
H      2.545806     6.393756    -0.725496
O      2.050664     5.399751    -2.410332
C      1.184469     5.634831    -3.541121
H      1.791913     5.466504    -4.437167
H      0.355229     4.921312    -3.509450
C      0.690008     7.092354    -3.410546
H     -0.382790     7.109156    -3.194082
H      0.857346     7.674786    -4.323177
C      1.490689     7.631372    -2.212617
H      0.964034     8.420203    -1.663546
H      2.465476     8.016878    -2.534508
