32
Energy = -1142.568308757 Hartree (EUMP2 CORRECTED)
O      0.553524    -0.030289     0.588855
C      1.270763     0.578756    -0.511463
H      1.727006    -0.236405    -1.081840
H      2.054018     1.242087    -0.124466
C     -0.597786     0.793640     0.884437
H     -1.496092     0.170935     0.775307
H     -0.529995     1.165388     1.912501
C      0.222099     1.373545    -1.269967
H     -0.405803     0.702820    -1.872158
H      0.634827     2.169526    -1.895968
C     -0.590677     1.950605    -0.109374
H     -1.598839     2.276605    -0.394974
O      0.109030     3.036540     0.505727
P      0.011956     4.521900    -0.306874
O     -1.455571     4.811621    -0.546979
O      1.029337     4.545164    -1.423165
O      0.558536     5.473670     0.946443
C      0.948438     5.022899     2.243218
H      1.895152     5.525017     2.482386
H      1.103869     3.938234     2.247368
C     -0.076954     5.390090     3.304660
H      0.245670     4.930451     4.250181
O     -0.114262     6.806578     3.561454
C     -1.025164     7.387444     2.600095
H     -1.442983     8.279993     3.078625
H     -0.469532     7.677235     1.702492
C     -2.071879     6.307836     2.275461
H     -2.165158     6.159661     1.196731
H     -3.053541     6.568825     2.688323
C     -1.517856     5.027045     2.932682
H     -1.563492     4.170470     2.253854
H     -2.072579     4.784023     3.847101
