32
Energy = -1142.563952288 Hartree (EUMP2 CORRECTED)
O      1.234551    -0.227366     0.657837
C      1.866863     0.838155    -0.079915
H      2.801678     0.434447    -0.480414
H      2.081980     1.686667     0.582964
C     -0.182577     0.062812     0.695808
H     -0.708749    -0.858552     0.418355
H     -0.478541     0.373185     1.703321
C      0.837559     1.226201    -1.127523
H      0.795408     0.456604    -1.911388
H      0.997495     2.208634    -1.577764
C     -0.446022     1.210135    -0.291380
H     -1.353693     1.020607    -0.879666
O     -0.577006     2.402535     0.468012
P     -1.277435     3.798778    -0.184761
O     -0.468708     4.958737     0.323782
O     -2.776866     3.642939    -0.067587
O     -0.886941     3.647308    -1.821594
C     -1.743471     2.975056    -2.738545
H     -2.769532     2.955070    -2.353268
H     -1.389555     1.941747    -2.900834
C     -1.687100     3.710101    -4.068908
H     -2.243781     3.122803    -4.813086
O     -2.353912     4.984039    -3.999161
C     -1.346546     5.965939    -3.691085
H     -1.768478     6.939893    -3.957197
H     -1.103534     5.938360    -2.624289
C     -0.156510     5.547538    -4.551258
H      0.794888     5.928230    -4.164170
H     -0.290562     5.920048    -5.573833
C     -0.236151     4.009962    -4.518959
H      0.472147     3.599896    -3.793986
H     -0.022579     3.569329    -5.499508
