32
Energy = -1142.573725640 Hartree (EUMP2 CORRECTED)
O      1.419245     0.042854    -1.203565
C      2.033887     1.349067    -1.283177
H      2.819811     1.281748    -2.041815
H      2.473311     1.619765    -0.315077
C      0.045471     0.226465    -0.785141
H     -0.594396    -0.274696    -1.523262
H     -0.104516    -0.221948     0.202559
C      0.889031     2.284364    -1.632149
H      0.610957     2.170806    -2.688737
H      1.087923     3.337970    -1.418354
C     -0.216535     1.730684    -0.731104
H     -1.220796     2.011945    -1.066399
O     -0.015774     2.147114     0.621684
P     -0.471866     3.723018     1.019046
O     -1.485771     4.174119    -0.017580
O      0.757856     4.510305     1.387758
O     -1.257897     3.388724     2.448965
C     -2.655734     3.095481     2.433396
H     -2.805472     2.142430     2.958100
H     -3.022642     3.013711     1.401790
C     -3.426407     4.191335     3.151171
H     -4.499590     3.966756     3.068660
O     -3.144362     4.217625     4.563369
C     -1.969622     5.040265     4.757926
H     -2.101547     5.531594     5.728678
H     -1.081006     4.402036     4.785044
C     -1.906029     6.021687     3.572435
H     -0.953711     5.922520     3.046429
H     -2.014324     7.061061     3.904526
C     -3.079180     5.600177     2.665478
H     -2.813074     5.611316     1.603979
H     -3.945829     6.253072     2.826037
