32
Energy = -1142.562389768 Hartree (EUMP2 CORRECTED)
O      0.037591     0.815123    -1.684483
C      0.730984     2.079872    -1.712684
H      0.912972     2.315859    -2.766635
H      1.680001     1.991815    -1.175303
C     -0.821543     0.791601    -0.526416
H     -1.835634     0.562916    -0.882568
H     -0.511056     0.013593     0.173687
C     -0.215999     3.046294    -1.015234
H      0.271319     3.937821    -0.610320
H     -1.018893     3.345429    -1.703291
C     -0.792135     2.187425     0.117874
H     -1.810641     2.501407     0.380316
O     -0.036390     2.356066     1.310630
P      1.131644     1.395209     2.029682
O      0.457739     0.304056     2.837284
O      2.146095     2.355572     2.595274
O      1.795267     0.665154     0.670551
C      1.881217    -0.756087     0.555004
H      1.231166    -1.230842     1.302345
H      1.545840    -1.012547    -0.458192
C      3.308017    -1.242128     0.744378
H      3.292227    -2.341236     0.716566
O      4.170704    -0.844433    -0.339344
C      4.679336     0.470295    -0.022113
H      5.668764     0.534570    -0.489004
H      4.020438     1.229393    -0.456961
C      4.707434     0.581168     1.512440
H      4.167120     1.468533     1.851514
H      5.735957     0.624444     1.890102
C      3.991337    -0.694543     2.000631
H      3.275868    -0.484596     2.801993
H      4.715135    -1.433863     2.364527
