32
Energy = -1142.554163353 Hartree (EUMP2 CORRECTED)
O      1.566882     0.272168     0.427970
C      0.630611    -0.090767    -0.616999
H      0.425819    -1.159902    -0.501888
H      1.078086     0.097344    -1.600184
C      1.283569     1.631134     0.831206
H      1.018961     1.622762     1.897931
H      2.175222     2.248207     0.680167
C     -0.570761     0.811219    -0.397087
H     -1.170892     0.455476     0.451551
H     -1.200565     0.924111    -1.283452
C      0.123445     2.124077    -0.026782
H     -0.533432     2.830260     0.496542
O      0.683617     2.754891    -1.182388
P     -0.451328     3.461991    -2.239620
O     -1.424350     4.243500    -1.385705
O     -0.892782     2.408917    -3.230612
O      0.579971     4.535915    -2.983712
C      1.992772     4.476232    -2.917275
H      2.303416     3.715251    -2.195879
H      2.388017     4.186521    -3.903518
C      2.589132     5.855846    -2.529469
H      2.927706     6.394800    -3.421128
O      1.659295     6.729077    -1.891933
C      1.491807     6.233609    -0.546334
H      1.294817     7.109510     0.080419
H      0.627575     5.562023    -0.515236
C      2.813834     5.513278    -0.191820
H      2.623042     4.455494     0.008734
H      3.300874     5.943477     0.690451
C      3.671412     5.683062    -1.461333
H      4.334850     4.829150    -1.646189
H      4.280946     6.592756    -1.406048
