32
Energy = -1142.567200139 Hartree (EUMP2 CORRECTED)
O      0.990420     0.480894     1.249790
C      1.663185     0.822636     0.015337
H      2.309356    -0.023183    -0.240776
H      2.279677     1.718386     0.166830
C     -0.331080     1.072318     1.224355
H     -1.067130     0.260109     1.297891
H     -0.443812     1.752694     2.074062
C      0.549592     1.093188    -0.981450
H      0.118350     0.147369    -1.337549
H      0.827569     1.718379    -1.833528
C     -0.455971     1.826517    -0.095578
H     -1.480402     1.808965    -0.489600
O     -0.030930     3.171272     0.137934
P     -0.561735     4.319067    -0.996776
O     -1.949969     4.774711    -0.612466
O     -0.223099     3.789095    -2.372959
O      0.494106     5.527983    -0.559770
C      1.658763     5.379713     0.244968
H      2.491845     5.849991    -0.293957
H      1.889614     4.322070     0.420799
C      1.463294     6.094591     1.573929
H      2.387889     5.990420     2.161373
O      1.292096     7.515027     1.357969
C     -0.123061     7.778358     1.428843
H     -0.233134     8.854081     1.600260
H     -0.607460     7.488347     0.489852
C     -0.595983     6.904051     2.582326
H     -1.675771     6.722460     2.560524
H     -0.332208     7.377339     3.536605
C      0.216176     5.620767     2.353953
H     -0.357179     4.908229     1.758105
H      0.497155     5.129886     3.293016
