32
Energy = -1142.569813548 Hartree (EUMP2 CORRECTED)
O      1.406237     0.104436     0.296516
C      1.819771     1.121028    -0.641076
H      2.706107     0.735137    -1.154891
H      2.076008     2.044352    -0.105829
C     -0.020902     0.252581     0.501674
H     -0.478825    -0.729759     0.330433
H     -0.217515     0.581531     1.527337
C      0.605139     1.330845    -1.529077
H      0.496717     0.488576    -2.225846
H      0.600340     2.268863    -2.089032
C     -0.518774     1.301300    -0.493724
H     -1.490908     1.055971    -0.933423
O     -0.605529     2.544376     0.212031
P     -1.360409     3.830059    -0.562196
O     -1.940242     4.727342     0.500917
O     -2.128880     3.277347    -1.742198
O      0.036887     4.576673    -1.162555
C      0.104940     5.996957    -1.004043
H      0.013693     6.275930     0.051375
H     -0.724103     6.468829    -1.554728
C      1.424208     6.512297    -1.567451
H      1.309356     7.573459    -1.819822
O      2.485665     6.472989    -0.588063
C      2.943488     5.108231    -0.572721
H      3.951863     5.120850    -0.147204
H      2.283199     4.503951     0.059510
C      2.886109     4.637233    -2.036496
H      2.471648     3.629670    -2.106441
H      3.884721     4.632428    -2.488421
C      1.970076     5.669515    -2.727801
H      1.164671     5.195095    -3.295342
H      2.549011     6.311726    -3.401602
