32
Energy = -1142.575978986 Hartree (EUMP2 CORRECTED)
O      0.725473     0.085484     1.415331
C      1.525139     0.659810     0.357882
H      2.367439    -0.019508     0.193038
H      1.902651     1.643924     0.664959
C     -0.649224     0.490739     1.203125
H     -1.259860    -0.420719     1.163355
H     -0.980219     1.124570     2.032151
C      0.572709     0.789911    -0.818193
H      0.398725    -0.193225    -1.276220
H      0.896120     1.501083    -1.582419
C     -0.697863     1.266659    -0.111553
H     -1.605078     1.077164    -0.694763
O     -0.617381     2.658980     0.216221
P     -0.896481     3.761676    -1.026654
O     -1.300618     5.051191    -0.354576
O     -1.652521     3.067869    -2.132588
O      0.672835     3.939342    -1.603095
C      1.595607     4.718327    -0.839493
H      2.417588     4.062839    -0.520105
H      1.105442     5.148534     0.044088
C      2.146734     5.835793    -1.708345
H      2.880317     6.407224    -1.121303
O      2.882017     5.296646    -2.832546
C      1.981606     5.294658    -3.956494
H      2.602747     5.223465    -4.855432
H      1.305402     4.435251    -3.892111
C      1.221749     6.609467    -3.822710
H      0.268526     6.602398    -4.362553
H      1.837162     7.430682    -4.210359
C      1.036593     6.731472    -2.301040
H      0.055587     6.369048    -1.981538
H      1.139445     7.767185    -1.958143
