32
Energy = -1142.564206060 Hartree (EUMP2 CORRECTED)
O      2.274627     1.279687     0.284054
C      1.767050     0.711384    -0.948468
H      2.233188    -0.272524    -1.067160
H      2.057799     1.353534    -1.789753
C      1.196420     1.985467     0.941923
H      0.954031     1.460153     1.877094
H      1.519131     3.006475     1.165862
C      0.255510     0.676487    -0.790899
H     -0.049520    -0.185911    -0.182070
H     -0.301109     0.687062    -1.731799
C      0.017391     1.974744    -0.019928
H     -0.947972     2.009604     0.502442
O      0.157317     3.100935    -0.887607
P     -1.265258     3.581467    -1.691685
O     -2.193566     4.230947    -0.696817
O     -1.670202     2.425677    -2.584368
O     -0.559823     4.793032    -2.577807
C      0.685121     4.582373    -3.240589
H      1.007937     3.535328    -3.183275
H      0.510009     4.830309    -4.296463
C      1.781605     5.513998    -2.689991
H      2.451707     5.746859    -3.530556
O      1.257906     6.774843    -2.254275
C      1.039879     6.641182    -0.835422
H      0.927953     7.656042    -0.441093
H      0.127820     6.064471    -0.649375
C      2.287922     5.910952    -0.343205
H      2.120997     5.391750     0.606782
H      3.107611     6.627033    -0.208169
C      2.589754     4.938685    -1.501636
H      2.252336     3.930545    -1.256583
H      3.660040     4.905380    -1.734342
