32
Energy = -1142.571032458 Hartree (EUMP2 CORRECTED)
O      1.090049    -0.147762    -0.022730
C      1.927327     0.962359     0.372660
H      2.962632     0.610907     0.321867
H      1.688871     1.264968     1.400215
C     -0.108039     0.393807    -0.630652
H     -0.202220    -0.050757    -1.629977
H     -0.981504     0.132974    -0.024476
C      1.581004     2.068209    -0.609598
H      2.040203     1.866624    -1.586845
H      1.849040     3.076343    -0.285108
C      0.064166     1.910443    -0.697066
H     -0.359857     2.353821    -1.603854
O     -0.559309     2.461218     0.467483
P     -0.918108     4.095412     0.464050
O     -0.309080     4.734647    -0.765463
O     -0.710327     4.628480     1.863704
O     -2.567179     3.869538     0.235591
C     -3.423913     4.984928     0.481894
H     -3.900041     5.273022    -0.464504
H     -2.861476     5.843162     0.876665
C     -4.486305     4.581216     1.490661
H     -5.162940     5.433879     1.648756
O     -5.315253     3.519394     0.960019
C     -4.804625     2.285047     1.496721
H     -5.602565     1.542683     1.389974
H     -3.916700     1.972633     0.935805
C     -4.454511     2.627320     2.939955
H     -3.735612     1.926087     3.377957
H     -5.366349     2.620656     3.550128
C     -3.884699     4.049239     2.810200
H     -2.792287     4.041311     2.745731
H     -4.169911     4.682942     3.657787
