32
Energy = -1142.558037504 Hartree (EUMP2 CORRECTED)
O      1.214738     0.018078     0.244894
C      2.103913     1.124276    -0.016166
H      3.076174     0.692753    -0.272455
H      2.201013     1.753689     0.878428
C     -0.137053     0.482917     0.013266
H     -0.631210    -0.264935    -0.619888
H     -0.668013     0.574803     0.966537
C      1.420268     1.882622    -1.140315
H      1.530142     1.329891    -2.082934
H      1.749672     2.916014    -1.275378
C     -0.033961     1.855841    -0.664409
H     -0.725313     1.987406    -1.499794
O     -0.200948     2.876755     0.318548
P     -1.245994     4.169337     0.044307
O     -0.859965     4.752955    -1.300145
O     -1.338907     4.933239     1.333906
O     -2.760099     3.458074    -0.174773
C     -3.119991     2.199357    -0.693756
H     -2.630487     1.379493    -0.152021
H     -2.872185     2.123769    -1.768060
C     -4.625362     2.050223    -0.532273
H     -4.947984     1.154376    -1.080973
O     -5.004545     1.826575     0.834276
C     -5.115314     3.122574     1.471439
H     -5.887241     3.014423     2.240999
H     -4.160311     3.386843     1.933828
C     -5.484742     4.126287     0.362597
H     -4.768740     4.950247     0.352711
H     -6.492293     4.533918     0.506096
C     -5.392591     3.310831    -0.942708
H     -4.877880     3.861393    -1.736396
H     -6.390162     3.026968    -1.298749
