32
Energy = -1142.567557058 Hartree (EUMP2 CORRECTED)
O     -0.259292    -0.154946     0.646861
C      0.765111    -0.198620    -0.359037
H      0.972122    -1.254831    -0.559628
H      1.678649     0.295112     0.000028
C     -0.962541     1.110615     0.505348
H     -2.034799     0.881521     0.483396
H     -0.736655     1.766304     1.351015
C      0.166090     0.566697    -1.529081
H     -0.599247    -0.045769    -2.023531
H      0.897173     0.908826    -2.267783
C     -0.478875     1.746914    -0.807204
H     -1.295721     2.217582    -1.368211
O      0.554708     2.704376    -0.570255
P      0.047005     4.252208    -0.092664
O     -0.114675     4.310410     1.403512
O     -1.057966     4.660538    -1.049219
O      1.476772     5.013918    -0.462994
C      2.184245     4.777564    -1.680448
H      3.082515     5.399498    -1.611026
H      2.485158     3.723548    -1.744023
C      1.439806     5.181944    -2.949287
H      0.870017     6.100971    -2.751456
O      2.473297     5.470053    -3.944397
C      2.048636     4.991022    -5.233857
H      2.206698     5.791068    -5.967224
H      2.674556     4.131233    -5.514906
C      0.586979     4.581235    -5.072878
H      0.288392     3.798460    -5.780199
H     -0.073693     5.444547    -5.220133
C      0.553846     4.136970    -3.611858
H      1.014573     3.145811    -3.502080
H     -0.436716     4.119243    -3.153760
