32
Energy = -1142.565774671 Hartree (EUMP2 CORRECTED)
O      1.335478     0.638593     1.305412
C      1.916446     1.015261     0.040840
H      2.668494     0.257561    -0.200688
H      2.406652     1.994476     0.130090
C     -0.014812     1.163932     1.344829
H     -0.677752     0.333206     1.616165
H     -0.085319     1.956311     2.097103
C      0.739142     1.072926    -0.918044
H      0.431065     0.054950    -1.191853
H      0.898642     1.652573    -1.830367
C     -0.330676     1.726139    -0.044111
H     -1.344722     1.483414    -0.377356
O     -0.155478     3.145333     0.015172
P     -0.962912     4.071876    -1.159451
O     -1.994030     4.927728    -0.467252
O     -1.272924     3.144514    -2.313904
O      0.289908     5.098064    -1.570700
C      1.663086     4.921920    -1.258748
H      2.234647     5.052439    -2.187632
H      1.855678     3.922329    -0.851267
C      2.106594     5.973295    -0.251305
H      3.181393     5.835957    -0.058254
O      1.974506     7.297343    -0.817429
C      0.741131     7.844182    -0.308523
H      0.796566     8.927923    -0.453731
H     -0.110384     7.426154    -0.856389
C      0.724490     7.403330     1.148864
H     -0.278180     7.434607     1.587945
H      1.393023     8.044883     1.736785
C      1.272837     5.971739     1.050173
H      0.452580     5.254762     0.981320
H      1.887923     5.699531     1.915748
