32
Energy = -1142.572937755 Hartree (EUMP2 CORRECTED)
O      1.614933     0.303312     0.439899
C      2.001880     1.506008    -0.248243
H      2.893858     1.266104    -0.836615
H      2.238319     2.299464     0.473429
C      0.177284     0.354161     0.658822
H     -0.246573    -0.572400     0.250384
H     -0.044848     0.425565     1.726459
C      0.779008     1.877472    -1.072757
H      0.692223     1.211759    -1.941332
H      0.758140     2.920086    -1.403512
C     -0.341686     1.594943    -0.076246
H     -1.312191     1.426425    -0.554545
O     -0.406333     2.722884     0.804120
P     -1.836975     2.984382     1.660405
O     -1.826624     4.442642     2.038888
O     -2.072082     1.824813     2.596900
O     -2.939605     2.736423     0.409578
C     -2.989866     3.730622    -0.610950
H     -2.001052     3.861728    -1.073584
H     -3.304452     4.697481    -0.190439
C     -3.981383     3.249007    -1.651946
H     -4.059002     4.000914    -2.449821
O     -3.493880     2.042753    -2.291260
C     -4.190980     0.934696    -1.696167
H     -4.101279     0.094044    -2.391459
H     -3.736701     0.679627    -0.730903
C     -5.611901     1.453381    -1.515518
H     -6.192518     0.867401    -0.794332
H     -6.133679     1.440146    -2.480177
C     -5.357707     2.892871    -1.046642
H     -5.294986     2.932133     0.044609
H     -6.137884     3.587105    -1.378076
