32
Energy = -1142.566572619 Hartree (EUMP2 CORRECTED)
O      2.107422     0.952331    -0.810848
C      2.449507     2.309576    -0.505676
H      3.311404     2.578875    -1.123488
H      2.711951     2.407813     0.558860
C      0.805063     0.757695    -0.198247
H      0.297969    -0.027669    -0.761631
H      0.931988     0.446763     0.843431
C      1.168790     3.069917    -0.821845
H      1.064870     3.165665    -1.909587
H      1.091892     4.057858    -0.358260
C      0.092547     2.133669    -0.259746
H     -0.785520     2.089004    -0.920054
O     -0.321600     2.646624     1.006157
P     -1.096787     1.690408     2.159127
O     -2.345951     2.427392     2.580942
O     -0.061156     1.142035     3.108054
O     -1.523426     0.378228     1.190819
C     -2.773355     0.384141     0.499867
H     -2.572611     0.268401    -0.575130
H     -3.311930     1.324910     0.677631
C     -3.614002    -0.786939     0.980718
H     -4.556070    -0.799768     0.413352
O     -2.957981    -2.040267     0.679918
C     -2.269181    -2.448714     1.878535
H     -2.072949    -3.520913     1.775820
H     -1.328474    -1.896528     1.976459
C     -3.238362    -2.093950     3.000283
H     -2.739505    -1.991356     3.969874
H     -4.008537    -2.870886     3.081516
C     -3.844194    -0.768958     2.508098
H     -3.341852     0.093286     2.954539
H     -4.911282    -0.692844     2.745460
