32
Energy = -1142.571143890 Hartree (EUMP2 CORRECTED)
O      1.534038    -0.030750     0.023623
C      1.898870     0.951507    -0.971796
H      2.629741     0.475158    -1.633015
H      2.352065     1.827022    -0.489038
C      0.173568     0.243042     0.439141
H     -0.409101    -0.675489     0.291023
H      0.159411     0.526491     1.496414
C      0.586776     1.326640    -1.638186
H      0.262045     0.524920    -2.315458
H      0.610711     2.280504    -2.170044
C     -0.343526     1.390495    -0.426083
H     -1.402727     1.294918    -0.688060
O     -0.139664     2.601303     0.314396
P     -0.930071     3.977595    -0.202757
O     -0.900750     4.975180     0.931281
O     -2.186259     3.581417    -0.947148
O      0.247318     4.441918    -1.324949
C      0.164563     5.783229    -1.811504
H     -0.628299     6.341889    -1.297979
H     -0.061546     5.765838    -2.885043
C      1.490214     6.492910    -1.539848
H      2.228123     6.213312    -2.303521
O      1.309425     7.928684    -1.676361
C      1.318837     8.476180    -0.346839
H      1.550355     9.541487    -0.444120
H      0.331778     8.358462     0.124963
C      2.366301     7.649409     0.383242
H      2.298067     7.735989     1.473600
H      3.368182     7.965723     0.066066
C      2.028161     6.240032    -0.119587
H      1.245595     5.788815     0.499147
H      2.889541     5.565169    -0.124318
