32
Energy = -1142.563456993 Hartree (EUMP2 CORRECTED)
O      2.175298     0.231734    -0.233374
C      2.662363     1.543012     0.092252
H      3.723982     1.568521    -0.173789
H      2.544884     1.739526     1.166626
C      0.745166     0.341658    -0.467833
H      0.548079    -0.088277    -1.458781
H      0.205847    -0.200216     0.309470
C      1.779682     2.471462    -0.726822
H      2.052870     2.403657    -1.788687
H      1.791355     3.515920    -0.402660
C      0.408453     1.840817    -0.481702
H     -0.309385     2.061664    -1.284728
O     -0.110226     2.434426     0.711408
P     -0.751603     1.745458     2.100967
O     -0.597368     2.821909     3.149058
O     -0.320235     0.311893     2.275329
O     -2.366157     1.674565     1.648270
C     -3.104057     2.898254     1.597938
H     -3.490825     3.024299     0.577297
H     -2.459973     3.749227     1.855233
C     -4.266350     2.838440     2.574034
H     -4.781065     3.809841     2.559645
O     -5.258408     1.870048     2.179052
C     -4.859110     0.589690     2.720028
H     -5.787507     0.057419     2.957203
H     -4.299352     0.034166     1.961014
C     -3.980697     0.875720     3.952699
H     -3.000135     0.408583     3.837699
H     -4.441255     0.495591     4.872338
C     -3.850716     2.410931     3.983031
H     -2.833220     2.736603     4.220732
H     -4.551395     2.843799     4.707544
