32
Energy = -1142.569733613 Hartree (EUMP2 CORRECTED)
O      0.992474    -0.459817     0.429990
C      1.841568     0.560025    -0.131852
H      2.740420     0.056421    -0.500674
H      2.117263     1.293944     0.637542
C     -0.366028     0.041877     0.387299
H     -0.990827    -0.755606    -0.031776
H     -0.707824     0.292318     1.396921
C      0.984078     1.208612    -1.205719
H      0.909981     0.543792    -2.077543
H      1.322932     2.199768    -1.517399
C     -0.362833     1.305344    -0.482984
H     -1.230617     1.335887    -1.153601
O     -0.368288     2.442825     0.379580
P     -1.144049     3.828577    -0.181869
O     -0.802870     4.916297     0.795645
O     -2.535204     3.439778    -0.635253
O     -0.227792     4.116562    -1.573999
C     -0.752123     3.825707    -2.865784
H     -1.844858     3.895464    -2.861004
H     -0.464315     2.803749    -3.173408
C     -0.156128     4.818078    -3.850717
H     -0.453266     4.521058    -4.866459
O     -0.697125     6.139445    -3.657329
C      0.202337     6.831555    -2.769589
H     -0.010900     7.899213    -2.880488
H      0.030438     6.516031    -1.735823
C      1.587909     6.420979    -3.262877
H      2.354636     6.521348    -2.487019
H      1.875639     7.043291    -4.118629
C      1.378138     4.959319    -3.701691
H      1.745225     4.268125    -2.938360
H      1.892868     4.739493    -4.644020
