32
Energy = -1142.573733169 Hartree (EUMP2 CORRECTED)
O      1.373525     0.278574     0.479445
C      1.674701     1.197424    -0.599589
H      2.506834     0.761484    -1.162007
H      1.975852     2.171260    -0.194657
C     -0.047917     0.345984     0.745380
H     -0.466600    -0.659693     0.600887
H     -0.213141     0.672547     1.776997
C      0.375965     1.313641    -1.378598
H      0.215969     0.419345    -1.997027
H      0.298496     2.205002    -2.004588
C     -0.642340     1.349093    -0.238175
H     -1.656497     1.090992    -0.562578
O     -0.634169     2.620585     0.413240
P     -1.352754     3.928351    -0.374007
O     -2.016236     4.766631     0.689690
O     -2.004403     3.431695    -1.641307
O      0.057321     4.710936    -0.849915
C      0.780640     5.409189     0.161074
H      1.139464     4.707643     0.927082
H      0.134204     6.155710     0.644873
C      1.962702     6.085919    -0.505362
H      2.508100     6.668180     0.250371
O      2.908166     5.106254    -1.000565
C      2.667091     4.963615    -2.409398
H      3.564960     4.509243    -2.840540
H      1.797236     4.317911    -2.578016
C      2.395821     6.388006    -2.879211
H      1.876321     6.428367    -3.843237
H      3.344351     6.931269    -2.969110
C      1.550779     6.944253    -1.723355
H      0.485392     6.800997    -1.924384
H      1.733589     8.010175    -1.547546
