32
Energy = -1142.575590465 Hartree (EUMP2 CORRECTED)
O      0.756328    -0.363609    -0.865875
C      1.623554     0.711738    -1.293562
H      2.283725     0.297363    -2.061806
H      2.220698     1.073578    -0.447275
C     -0.490458     0.223671    -0.425499
H     -1.301186    -0.261749    -0.984433
H     -0.624211     0.050468     0.647698
C      0.678091     1.794654    -1.782855
H      0.265290     1.523949    -2.764229
H      1.126395     2.791244    -1.823991
C     -0.414895     1.722060    -0.713514
H     -1.374644     2.143982    -1.037629
O      0.009869     2.366498     0.491838
P     -0.064013     4.055440     0.485331
O     -1.464478     4.435624     0.040080
O      1.182889     4.633339    -0.136376
O      0.087161     4.241718     2.126691
C     -1.043262     3.941925     2.951638
H     -0.739970     3.169951     3.670596
H     -1.878121     3.570279     2.343352
C     -1.485751     5.189345     3.697148
H     -2.392668     4.944875     4.268324
O     -0.515766     5.611492     4.675409
C      0.441999     6.458905     3.999949
H      0.768124     7.198303     4.740192
H      1.297337     5.855944     3.679281
C     -0.281851     7.076481     2.788337
H      0.257244     6.848340     1.866093
H     -0.364848     8.165793     2.881121
C     -1.670235     6.406721     2.788541
H     -1.992983     6.118398     1.783222
H     -2.419593     7.072068     3.234354
