32
Energy = -1142.568212977 Hartree (EUMP2 CORRECTED)
O      1.335704     0.128543    -0.007884
C      2.172184     1.243650    -0.379190
H      3.102898     0.822569    -0.771596
H      2.387480     1.867141     0.498718
C     -0.040521     0.579310    -0.059551
H     -0.602486    -0.165905    -0.636822
H     -0.446928     0.650204     0.954632
C      1.335183     2.006367    -1.391721
H      1.318024     1.463606    -2.346219
H      1.641652     3.041995    -1.559821
C     -0.039555     1.962980    -0.722780
H     -0.845315     2.109524    -1.446834
O     -0.074596     2.966937     0.291142
P     -1.220917     4.199113     0.232975
O     -1.399740     4.551366    -1.232267
O     -0.890010     5.154632     1.340980
O     -2.637340     3.422512     0.709632
C     -3.160030     2.324085    -0.019710
H     -2.658643     1.389163     0.266987
H     -3.041591     2.490935    -1.102169
C     -4.642013     2.209279     0.293957
H     -5.080368     1.445754    -0.363316
O     -4.888849     1.751554     1.634863
C     -4.852645     2.909661     2.500465
H     -5.546624     2.696810     3.320941
H     -3.840095     3.038703     2.893669
C     -5.264121     4.119459     1.639761
H     -4.497349     4.894870     1.692641
H     -6.219651     4.543544     1.969831
C     -5.365521     3.556354     0.208199
H     -4.902585     4.219052    -0.529639
H     -6.412100     3.388202    -0.072633
