32
Energy = -1142.566280999 Hartree (EUMP2 CORRECTED)
O      1.544431     0.327805     0.202508
C      2.004286     1.572360    -0.372344
H      2.983400     1.372088    -0.818902
H      2.104551     2.334112     0.411821
C      0.096137     0.339600     0.175290
H     -0.231031    -0.572218    -0.341243
H     -0.294297     0.348327     1.198081
C      0.920791     1.960136    -1.362424
H      0.985972     1.324473    -2.256631
H      0.930602     3.011605    -1.656708
C     -0.336912     1.603438    -0.568019
H     -1.219802     1.448506    -1.198081
O     -0.626853     2.599982     0.421898
P     -1.568842     3.902434    -0.032126
O     -1.991442     4.604431     1.230250
O     -2.522516     3.474621    -1.131856
O     -0.331571     4.793513    -0.774551
C     -0.726607     5.633029    -1.847339
H     -1.340911     5.080751    -2.572436
H     -1.320974     6.481281    -1.466497
C      0.520153     6.167683    -2.520085
H      1.257018     6.417012    -1.748012
O      1.149339     5.157694    -3.352841
C      0.877557     5.493926    -4.714884
H      1.623967     4.983740    -5.330812
H     -0.126028     5.145794    -5.009635
C      0.956014     7.015255    -4.742651
H      0.502397     7.460647    -5.635736
H      2.005603     7.326752    -4.690036
C      0.215970     7.363201    -3.447005
H     -0.863876     7.425551    -3.636381
H      0.530153     8.314122    -3.005335
