32
Energy = -1142.561393398 Hartree (EUMP2 CORRECTED)
O      1.618885     0.245216     0.144207
C      2.047970     1.461677    -0.506203
H      2.960202     1.219189    -1.060494
H      2.265205     2.233669     0.243745
C      0.180286     0.315540     0.302203
H     -0.242427    -0.597886    -0.135380
H     -0.074872     0.372006     1.365341
C      0.866888     1.869206    -1.369329
H      0.805626     1.221113    -2.254228
H      0.868328     2.917943    -1.674430
C     -0.298795     1.573703    -0.423069
H     -1.255145     1.432123    -0.938641
O     -0.434319     2.609726     0.558355
P     -1.438697     3.897234     0.199458
O     -1.631171     4.674415     1.473740
O     -2.569702     3.418928    -0.690239
O     -0.347650     4.730026    -0.796722
C     -0.935409     5.513009    -1.833201
H     -1.491236     4.881497    -2.536588
H     -1.637101     6.239124    -1.394284
C      0.184931     6.247070    -2.561555
H      1.099104     6.137836    -1.961882
O      0.444390     5.650729    -3.865527
C      0.579878     6.685931    -4.851402
H      1.416400     6.423765    -5.508504
H     -0.338028     6.736374    -5.456979
C      0.787003     7.981669    -4.071234
H      0.499785     8.871331    -4.643453
H      1.837723     8.084784    -3.774465
C     -0.087057     7.721788    -2.847284
H     -1.146613     7.866592    -3.098869
H      0.146877     8.350313    -1.982069
