32
Energy = -1142.565118307 Hartree (EUMP2 CORRECTED)
O      1.375753     0.016525    -0.015858
C      1.940424     1.243367    -0.525606
H      2.928295     0.994293    -0.927462
H      2.047716     1.973233     0.288140
C     -0.067152     0.113842    -0.126392
H     -0.412257    -0.755736    -0.700631
H     -0.515203     0.103627     0.872203
C      0.935772     1.728131    -1.556589
H      1.009777     1.122144    -2.469913
H      1.014789     2.788960    -1.805987
C     -0.381797     1.429615    -0.836293
H     -1.237198     1.361222    -1.517336
O     -0.651210     2.404084     0.175353
P     -1.389519     3.848201    -0.300281
O     -1.871985     4.506545     0.965277
O     -2.212228     3.558262    -1.531493
O     -0.027682     4.682743    -0.848455
C      0.666997     5.476503     0.117785
H      0.067859     6.352277     0.389673
H      0.862912     4.900344     1.031112
C      1.964405     5.926143    -0.538813
H      1.842960     5.872819    -1.632886
O      2.226927     7.296570    -0.151450
C      3.582154     7.570639    -0.526124
H      3.603264     8.013751    -1.533013
H      3.969062     8.305613     0.186211
C      4.336675     6.219602    -0.495831
H      5.177182     6.228002     0.206117
H      4.736546     5.976964    -1.486664
C      3.241925     5.224007    -0.089477
H      3.203498     5.103732     0.999120
H      3.364279     4.233477    -0.540988
