32
Energy = -1142.572694048 Hartree (EUMP2 CORRECTED)
O      1.666313     0.128116    -0.779278
C      2.055785     1.461977    -1.180602
H      2.810707     1.348381    -1.964833
H      2.484430     2.001283    -0.326951
C      0.291349     0.183298    -0.335833
H     -0.280148    -0.543947    -0.928593
H      0.235325    -0.078225     0.725954
C      0.761423     2.111689    -1.635239
H      0.463827     1.717873    -2.617011
H      0.780977     3.202397    -1.677449
C     -0.206823     1.611812    -0.560909
H     -1.254331     1.659342    -0.881800
O     -0.022114     2.310172     0.671951
P     -0.474440     3.934770     0.775869
O     -1.196789     4.278882    -0.515294
O      0.672192     4.720881     1.346480
O     -1.606017     3.806592     1.997041
C     -2.864085     3.202898     1.695029
H     -2.985102     2.319124     2.336086
H     -2.910326     2.901221     0.639710
C     -3.986960     4.190089     1.966858
H     -4.936180     3.728063     1.660003
O     -4.132988     4.476070     3.370741
C     -3.219931     5.550586     3.692860
H     -3.702494     6.130357     4.487839
H     -2.279602     5.129323     4.061652
C     -2.994026     6.350348     2.395799
H     -1.928726     6.397532     2.159317
H     -3.376769     7.374161     2.482091
C     -3.755583     5.555949     1.316561
H     -3.185976     5.470378     0.385790
H     -4.727309     6.020089     1.108162
