32
Energy = -1142.569011782 Hartree (EUMP2 CORRECTED)
O      2.034316     0.864349    -1.123030
C      1.858018     2.139336    -1.782155
H      2.382957     2.072392    -2.740835
H      2.292257     2.947867    -1.183214
C      0.932304     0.709655    -0.197242
H      0.528563    -0.299984    -0.341571
H      1.286183     0.823661     0.833638
C      0.351844     2.301526    -1.888414
H     -0.042598     1.642406    -2.674416
H      0.028600     3.330794    -2.059780
C     -0.096348     1.801495    -0.514096
H     -1.128002     1.434905    -0.503494
O      0.045905     2.829045     0.477428
P     -1.265302     3.852687     0.739306
O     -0.999685     4.507588     2.074201
O     -2.523997     3.122306     0.342333
O     -1.002457     5.011798    -0.463444
C     -0.206590     6.132508    -0.103425
H     -0.516361     6.942078    -0.781124
H     -0.399076     6.437142     0.933512
C      1.286272     5.892556    -0.290887
H      1.640433     5.143449     0.423634
O      1.543882     5.333434    -1.609809
C      1.965062     6.397754    -2.458288
H      2.464338     5.946764    -3.321420
H      1.101487     6.984171    -2.814822
C      2.868153     7.236710    -1.565696
H      3.052455     8.247971    -1.947580
H      3.830952     6.727352    -1.446164
C      2.078502     7.221363    -0.252122
H      1.383308     8.070824    -0.214036
H      2.722265     7.288748     0.631123
