32
Energy = -1142.566177793 Hartree (EUMP2 CORRECTED)
O      1.830731     0.071277    -0.235452
C      1.040805     0.168848    -1.443243
H      1.184621    -0.767374    -1.991752
H      1.388792     1.012005    -2.053191
C      1.171131     0.848383     0.791993
H      0.977829     0.181787     1.643047
H      1.820115     1.672307     1.106471
C     -0.378087     0.410084    -0.958712
H     -0.812703    -0.520960    -0.570118
H     -1.034894     0.845414    -1.716740
C     -0.123081     1.388787     0.190174
H     -0.946130     1.437716     0.913804
O      0.156929     2.699466    -0.309064
P     -1.184078     3.576815    -0.857735
O     -2.299738     3.459766     0.148588
O     -1.356481     3.252639    -2.332123
O     -0.504585     5.089361    -0.724380
C      0.828533     5.292487    -1.202604
H      1.268367     4.351350    -1.548149
H      1.430718     5.660949    -0.363586
C      0.871288     6.287604    -2.378570
H      1.106099     7.293878    -2.009283
O      1.978364     5.940747    -3.253335
C      1.394440     5.265171    -4.381260
H      2.148186     5.263439    -5.174527
H      1.129145     4.230822    -4.116684
C      0.143121     6.078471    -4.673506
H     -0.571797     5.550352    -5.314162
H      0.425552     7.022416    -5.156682
C     -0.399012     6.299249    -3.253737
H     -1.057019     5.472798    -2.976757
H     -0.953209     7.237497    -3.147266
