32
Energy = -1142.558445497 Hartree (EUMP2 CORRECTED)
O      0.913374    -0.563576     0.165282
C      1.895371     0.478330     0.020092
H      2.850073    -0.012264    -0.193645
H      1.977074     1.060779     0.948165
C     -0.381463     0.028141    -0.111493
H     -0.906438    -0.653880    -0.790212
H     -0.950209     0.143829     0.816830
C      1.351493     1.343453    -1.105938
H      1.494458     0.836697    -2.070226
H      1.785015     2.346304    -1.144947
C     -0.133257     1.409296    -0.735112
H     -0.804610     1.595855    -1.580540
O     -0.316562     2.408811     0.265346
P     -1.254051     3.768305    -0.089788
O     -1.501662     4.440847     1.227990
O     -2.304479     3.349646    -1.099353
O     -0.128251     4.723824    -0.905296
C     -0.018784     4.590345    -2.315898
H      0.352522     3.598494    -2.617416
H     -1.011697     4.720914    -2.762683
C      0.949036     5.667572    -2.834233
H      0.616711     5.947372    -3.843839
O      0.923302     6.879789    -2.074427
C      2.027602     6.803119    -1.161042
H      2.197633     7.815430    -0.783066
H      1.775337     6.130106    -0.332515
C      3.162279     6.253231    -2.024110
H      3.985747     5.831909    -1.435920
H      3.561792     7.054606    -2.656526
C      2.426280     5.198688    -2.870883
H      2.521693     4.208442    -2.412615
H      2.810789     5.132937    -3.894223
