32
Energy = -1142.565998073 Hartree (EUMP2 CORRECTED)
O      1.874046     1.070773    -0.473722
C      1.911458     2.475767    -0.155649
H      2.867415     2.871301    -0.516320
H      1.844016     2.609985     0.932274
C      0.514356     0.716724    -0.841019
H      0.499515     0.480992    -1.915681
H      0.205047    -0.148559    -0.258195
C      0.689368     3.066914    -0.843947
H      0.875258     3.187318    -1.919529
H      0.355485     4.017002    -0.417440
C     -0.335629     1.961359    -0.602593
H     -1.178906     1.985477    -1.307786
O     -0.841491     2.185837     0.714606
P     -1.552813     1.044553     1.703240
O     -2.660818     0.340711     0.947887
O     -1.739083     1.709181     3.045420
O     -0.255260    -0.027126     1.809461
C     -0.440669    -1.110049     2.726833
H     -0.558147    -2.040069     2.155246
H     -1.338599    -0.957565     3.342346
C      0.769629    -1.209985     3.638349
H      0.587971    -2.013271     4.367303
O      1.945287    -1.615779     2.901546
C      2.678212    -0.414553     2.585542
H      3.703527    -0.726698     2.359916
H      2.240472     0.075098     1.710789
C      2.550217     0.434500     3.846313
H      2.716505     1.500834     3.655172
H      3.281337     0.098542     4.592426
C      1.114328     0.136654     4.312123
H      0.412361     0.909001     3.983316
H      1.047914     0.060691     5.403493
