32
Energy = -1142.562979363 Hartree (EUMP2 CORRECTED)
O      1.983124    -0.108048    -0.030974
C      2.569754     1.183308    -0.291853
H      3.576285     1.002246    -0.683039
H      2.627112     1.772556     0.632006
C      0.543773     0.016083    -0.165290
H      0.221497    -0.721172    -0.913446
H      0.065346    -0.174601     0.796680
C      1.614112     1.823304    -1.286723
H      1.707153     2.910437    -1.363911
H      1.738378     1.365122    -2.277967
C      0.261589     1.433821    -0.682396
H     -0.542919     1.422278    -1.429029
O     -0.123233     2.421859     0.273897
P     -0.009936     2.401298     1.953388
O      1.247604     3.158215     2.331870
O     -0.365799     1.044286     2.508030
O     -1.336197     3.368697     2.226734
C     -1.210149     4.781416     2.044498
H     -1.953062     5.095210     1.299156
H     -0.202428     5.037147     1.691912
C     -1.473452     5.496056     3.359036
H     -1.308144     6.572201     3.206348
O     -2.845999     5.372613     3.781002
C     -2.962367     4.139595     4.528268
H     -3.726532     4.319336     5.293162
H     -3.292086     3.339294     3.858332
C     -1.568910     3.832242     5.108589
H     -1.232636     2.843763     4.787650
H     -1.574603     3.858810     6.204731
C     -0.660139     4.932766     4.526346
H      0.306736     4.541039     4.195086
H     -0.496853     5.728906     5.262978
