32
Energy = -1142.564648411 Hartree (EUMP2 CORRECTED)
O      1.533133     0.095736     0.149497
C      1.828359     1.310053    -0.575360
H      2.723643     1.111063    -1.172192
H      2.020466     2.134232     0.122872
C      0.112374     0.084653     0.420147
H     -0.278352    -0.883440     0.080884
H     -0.067634     0.204597     1.493447
C      0.570565     1.579020    -1.383489
H      0.510636     0.881825    -2.231401
H      0.481958     2.607222    -1.741974
C     -0.509119     1.258743    -0.344977
H     -1.468982     0.979050    -0.793546
O     -0.656552     2.327939     0.576525
P     -1.445142     3.783108     0.206685
O     -0.383894     4.849764     0.128691
O     -2.692200     3.844276     1.053608
O     -1.900533     3.504362    -1.396337
C     -3.168532     2.904241    -1.663189
H     -3.956324     3.409032    -1.092997
H     -3.175416     1.838477    -1.381985
C     -3.433536     3.017757    -3.154046
H     -4.322613     2.418663    -3.394205
O     -3.751374     4.358760    -3.559641
C     -2.502031     5.052519    -3.776624
H     -2.699076     5.795406    -4.556906
H     -2.195240     5.553500    -2.854144
C     -1.472155     3.982504    -4.189664
H     -0.601954     4.030081    -3.531871
H     -1.138831     4.119641    -5.225034
C     -2.219713     2.645829    -4.013251
H     -1.597094     1.881347    -3.537413
H     -2.565184     2.262569    -4.980890
