32
Energy = -1142.566723145 Hartree (EUMP2 CORRECTED)
O      1.877214    -0.347129    -0.569818
C      2.321496     0.841977    -1.260707
H      2.886242     0.507314    -2.135807
H      2.959424     1.445069    -0.602996
C      0.892517     0.139245     0.356156
H      0.274615    -0.711366     0.656446
H      1.373588     0.575878     1.242763
C      1.035953     1.597318    -1.580407
H      1.196190     2.671921    -1.668099
H      0.590587     1.205415    -2.503309
C      0.114630     1.245770    -0.387928
H     -0.829751     0.841377    -0.770381
O     -0.317965     2.273335     0.503536
P      0.679736     3.457178     1.172417
O      1.908163     3.594796     0.290516
O      0.742762     3.266989     2.662887
O     -0.325949     4.760705     0.914638
C     -0.490010     5.246795    -0.416915
H     -1.554332     5.177820    -0.678601
H      0.097534     4.651609    -1.128746
C     -0.034606     6.694320    -0.497685
H     -0.101473     7.020087    -1.545589
O     -0.901539     7.578909     0.237200
C     -0.443179     7.595508     1.609095
H     -0.657133     8.601290     1.987962
H     -1.004494     6.855574     2.188034
C      1.058086     7.251583     1.583708
H      1.260624     6.385951     2.218260
H      1.669531     8.091000     1.935264
C      1.352540     6.923705     0.106621
H      1.993788     6.043191    -0.001159
H      1.821210     7.780026    -0.393524
