32
Energy = -1142.568976230 Hartree (EUMP2 CORRECTED)
O      1.448038    -0.137230    -0.437702
C      0.911563     0.311879    -1.702881
H      1.005194    -0.525862    -2.401024
H      1.489337     1.167959    -2.074041
C      0.755702     0.574478     0.615586
H      0.326807    -0.173400     1.295383
H      1.461396     1.210202     1.160321
C     -0.516426     0.724257    -1.391789
H     -1.149439    -0.164389    -1.263838
H     -0.955389     1.397383    -2.133301
C     -0.323291     1.428829    -0.046228
H     -1.242063     1.492279     0.550281
O      0.222491     2.739113    -0.223705
P     -0.864304     3.925566    -0.743089
O     -2.079203     3.900783     0.148520
O     -0.943668     3.854465    -2.258383
O      0.074495     5.227753    -0.316905
C      1.196998     5.522238    -1.154353
H      1.401182     4.685897    -1.829614
H      2.063311     5.650661    -0.494574
C      0.997436     6.799282    -2.001201
H      1.471566     7.648102    -1.494393
O      1.703082     6.665143    -3.253753
C      0.782695     5.979712    -4.132274
H      1.137681     6.161274    -5.151408
H      0.787788     4.903705    -3.923417
C     -0.598936     6.565119    -3.824270
H     -1.363387     5.785827    -3.866987
H     -0.849825     7.365442    -4.530532
C     -0.452065     7.121319    -2.389731
H     -1.163237     6.676113    -1.692594
H     -0.592477     8.208259    -2.378581
