32
Energy = -1142.572068338 Hartree (EUMP2 CORRECTED)
O      1.817425     0.141037    -0.214882
C      2.367705     1.426437     0.151374
H      3.447555     1.367536    -0.017082
H      2.169349     1.630999     1.211319
C      0.457966     0.353505    -0.667570
H      0.371099    -0.085054    -1.670052
H     -0.242105    -0.138373     0.015175
C      1.637864     2.419515    -0.736464
H      2.025775     2.366202    -1.762809
H      1.658733     3.456509    -0.394363
C      0.217023     1.862836    -0.683102
H     -0.403963     2.183745    -1.526856
O     -0.408785     2.208480     0.557824
P     -1.205292     3.672916     0.627313
O     -0.678153     4.599172    -0.449494
O     -1.309165     4.065667     2.081706
O     -2.694306     3.062516     0.127681
C     -3.673782     4.013857    -0.292943
H     -3.898463     3.834253    -1.352689
H     -3.303777     5.043999    -0.190363
C     -4.936711     3.834797     0.531710
H     -5.687789     4.560050     0.184728
O     -5.515812     2.528557     0.290551
C     -5.128956     1.690491     1.394340
H     -5.820615     0.841606     1.402830
H     -4.099537     1.340384     1.254719
C     -5.240439     2.607422     2.605372
H     -4.672968     2.243772     3.469144
H     -6.294664     2.707628     2.892974
C     -4.684196     3.928233     2.052469
H     -3.611223     4.009516     2.255749
H     -5.185003     4.801841     2.485400
