32
Energy = -1142.565936642 Hartree (EUMP2 CORRECTED)
O      1.486161     0.247298     0.183875
C      2.011144     1.489281    -0.336779
H      2.994939     1.264376    -0.760649
H      2.116781     2.222507     0.473565
C      0.040725     0.326708     0.130488
H     -0.316733    -0.560889    -0.407371
H     -0.369427     0.337147     1.145566
C      0.973608     1.949378    -1.345208
H      1.041975     1.337641    -2.256046
H      1.036837     3.006667    -1.609747
C     -0.320512     1.622940    -0.597406
H     -1.191049     1.512531    -1.254005
O     -0.598900     2.611764     0.401484
P     -1.546321     3.921671    -0.030510
O     -1.902322     4.632539     1.245517
O     -2.545101     3.480309    -1.084212
O     -0.353730     4.820239    -0.835554
C     -0.714261     5.394163    -2.081851
H     -1.173977     4.649534    -2.746237
H     -1.446001     6.205374    -1.929992
C      0.530902     5.969428    -2.723878
H      1.138506     6.450748    -1.949292
O      1.368601     4.925747    -3.289512
C      1.218638     4.975467    -4.709689
H      2.087446     4.474064    -5.146270
H      0.305151     4.444310    -5.024310
C      1.115899     6.463783    -5.018451
H      0.718405     6.677051    -6.017570
H      2.107143     6.923126    -4.929963
C      0.194233     6.927416    -3.885892
H     -0.855969     6.803197    -4.181677
H      0.337740     7.975996    -3.606663
