32
Energy = -1142.573962079 Hartree (EUMP2 CORRECTED)
O     -0.212970     0.072456     0.868683
C      0.990823     0.874288     0.935997
H      1.825338     0.183476     1.094201
H      0.924032     1.573578     1.778342
C     -1.121394     0.697271    -0.070066
H     -1.298097    -0.007269    -0.894800
H     -2.067360     0.921672     0.432899
C      1.033476     1.628392    -0.383214
H      1.373455     0.971236    -1.195267
H      1.651867     2.530035    -0.359164
C     -0.446494     1.971463    -0.559092
H     -0.712712     2.247439    -1.585148
O     -0.813517     3.015282     0.342593
P     -0.485963     4.605216    -0.129515
O     -0.379945     4.616380    -1.636236
O      0.575408     5.174953     0.788532
O     -1.975481     5.192730     0.332088
C     -2.090785     6.220094     1.316807
H     -2.826560     6.940623     0.938106
H     -1.125552     6.719759     1.471176
C     -2.586751     5.646804     2.637581
H     -2.729286     6.482444     3.338816
O     -3.890418     5.043418     2.483057
C     -3.669230     3.637310     2.247026
H     -4.615145     3.133274     2.472881
H     -3.389578     3.473950     1.201710
C     -2.524675     3.265388     3.185625
H     -1.956819     2.403840     2.820413
H     -2.920940     3.035574     4.182550
C     -1.669594     4.546067     3.215815
H     -0.765021     4.444258     2.611593
H     -1.362462     4.798211     4.237580
