32
Energy = -1142.574636111 Hartree (EUMP2 CORRECTED)
O      1.610620     0.260227     0.365411
C      1.993224     1.480248    -0.292938
H      2.875776     1.253898    -0.900382
H      2.243167     2.252850     0.447055
C      0.181173     0.327661     0.632831
H     -0.266741    -0.591770     0.236195
H     -0.005199     0.393929     1.706782
C      0.759012     1.877516    -1.087662
H      0.654896     1.231046    -1.968679
H      0.736714     2.926338    -1.397583
C     -0.345599     1.579410    -0.077680
H     -1.322967     1.418618    -0.546814
O     -0.405319     2.697074     0.817850
P     -1.853060     2.892667     1.659404
O     -1.733038     4.209654     2.380566
O     -2.250679     1.571166     2.269505
O     -2.880622     3.073212     0.335897
C     -2.728013     4.260784    -0.437527
H     -1.696407     4.349655    -0.805407
H     -2.957544     5.147674     0.172454
C     -3.683507     4.160582    -1.610608
H     -3.610318     5.078520    -2.210540
O     -3.292682     3.080768    -2.494337
C     -4.144272     1.961718    -2.196437
H     -4.099837     1.290870    -3.060294
H     -3.787124     1.446826    -1.296449
C     -5.509898     2.595919    -1.962617
H     -6.197115     1.941232    -1.415108
H     -5.964606     2.854613    -2.926604
C     -5.135468     3.859371    -1.174345
H     -5.157120     3.658974    -0.099430
H     -5.804907     4.700180    -1.387457
