32
Energy = -1142.571534434 Hartree (EUMP2 CORRECTED)
O      1.063192    -0.076382    -0.831321
C      1.663488     0.971594    -0.038863
H      2.747214     0.860306    -0.139782
H      1.376930     0.861321     1.015622
C     -0.271249     0.361854    -1.175230
H     -0.410151     0.171318    -2.246653
H     -1.011311    -0.204338    -0.598596
C      1.093106     2.251507    -0.621504
H      1.564730     2.462413    -1.590901
H      1.159303     3.127933     0.029425
C     -0.371041     1.852475    -0.825597
H     -0.865068     2.443446    -1.603032
O     -1.108609     1.949102     0.401538
P     -1.673122     3.455258     0.894345
O     -0.489448     4.334103     1.226855
O     -2.826244     3.191274     1.832380
O     -2.284180     3.971352    -0.597956
C     -3.577756     4.584367    -0.618404
H     -3.482215     5.507211    -1.205727
H     -3.898478     4.835910     0.400695
C     -4.657034     3.725326    -1.256263
H     -5.595000     4.295570    -1.186061
O     -4.441790     3.522020    -2.668019
C     -3.660724     2.320812    -2.831070
H     -4.024888     1.837774    -3.745334
H     -2.607497     2.591566    -2.967406
C     -3.868412     1.468158    -1.564600
H     -2.925997     1.290474    -1.046151
H     -4.317300     0.496493    -1.802411
C     -4.796594     2.317674    -0.678867
H     -4.508805     2.281675     0.376273
H     -5.838260     1.991973    -0.787565
