32
Energy = -1142.565339386 Hartree (EUMP2 CORRECTED)
O      1.617634     0.241699     0.481271
C      2.157028     1.436749    -0.117887
H      3.124123     1.164399    -0.551840
H      2.298137     2.215017     0.643804
C      0.176976     0.388535     0.516350
H     -0.251235    -0.532440     0.102240
H     -0.162476     0.530151     1.547647
C      1.101078     1.861547    -1.125204
H      1.135205     1.208351    -2.007785
H      1.180838     2.909692    -1.428011
C     -0.181718     1.623324    -0.319109
H     -1.064430     1.451036    -0.943330
O     -0.396400     2.711485     0.571775
P     -1.433874     4.003669     0.242310
O     -0.596718     5.140533    -0.305176
O     -2.385495     4.110350     1.401479
O     -2.318131     3.375046    -1.050967
C     -1.847790     3.583644    -2.379789
H     -0.867163     3.119217    -2.541593
H     -1.751449     4.659294    -2.585399
C     -2.858226     2.942736    -3.311256
H     -2.545194     3.115316    -4.350652
O     -2.858976     1.503398    -3.133494
C     -4.001766     1.176773    -2.323571
H     -4.208208     0.113502    -2.481819
H     -3.779310     1.367703    -1.266758
C     -5.090259     2.112025    -2.834592
H     -5.920307     2.227633    -2.128811
H     -5.486349     1.730896    -3.783726
C     -4.305393     3.414215    -3.048391
H     -4.329183     4.025626    -2.141849
H     -4.695379     4.007438    -3.882929
