32
Energy = -1142.567411943 Hartree (EUMP2 CORRECTED)
O      1.287369    -0.356626    -1.311050
C      2.158272     0.785990    -1.456462
H      2.875264     0.541882    -2.245608
H      2.684155     0.978946    -0.512440
C      0.195646     0.134557    -0.512486
H     -0.664079    -0.513511    -0.709048
H      0.456723     0.109301     0.552918
C      1.203335     1.923755    -1.796891
H      1.599577     2.922695    -1.597842
H      0.913729     1.845113    -2.852211
C     -0.026442     1.612271    -0.918717
H     -0.950056     1.728778    -1.497325
O     -0.243457     2.415536     0.247159
P      1.016281     3.161621     1.083357
O      1.602092     4.253743     0.205029
O      1.869172     2.118419     1.761104
O      0.044194     3.861346     2.231105
C     -0.822024     4.925567     1.828105
H     -1.858245     4.587802     1.956820
H     -0.650330     5.188794     0.776069
C     -0.562565     6.144421     2.696658
H     -1.236603     6.950193     2.372145
O     -0.905982     5.885984     4.077468
C      0.310217     5.489760     4.739600
H      0.140947     5.627954     5.812560
H      0.528713     4.438786     4.523237
C      1.373662     6.413067     4.152213
H      2.382215     5.993698     4.234157
H      1.353858     7.376929     4.675258
C      0.921404     6.573219     2.689190
H      1.493196     5.932215     2.012117
H      1.028443     7.608168     2.345140
