32
Energy = -1142.573047197 Hartree (EUMP2 CORRECTED)
O      0.550946    -0.605186    -0.260549
C      1.424871     0.248956    -1.032899
H      1.987919    -0.403679    -1.707337
H      2.118100     0.778334    -0.366498
C     -0.615511     0.171811     0.108325
H     -1.501230    -0.385913    -0.221474
H     -0.644891     0.308228     1.194113
C      0.490469     1.227945    -1.723752
H     -0.021817     0.735224    -2.561337
H      0.961208     2.153540    -2.066207
C     -0.492022     1.524110    -0.592311
H     -1.465287     1.895579    -0.936874
O      0.099048     2.450775     0.323204
P     -0.375985     4.058726     0.104797
O     -1.848771     4.151127     0.457283
O      0.195322     4.582999    -1.189257
O      0.541379     4.670826     1.344084
C      0.154753     4.367908     2.688099
H      0.960703     3.782109     3.148025
H     -0.776225     3.785881     2.703373
C     -0.049759     5.660215     3.459891
H     -0.336678     5.406352     4.490487
O      1.187630     6.400481     3.573497
C      1.191662     7.367117     2.505853
H      1.924940     8.132659     2.780061
H      1.480680     6.885270     1.565822
C     -0.247374     7.870930     2.455055
H     -0.507526     8.298813     1.480832
H     -0.395155     8.639193     3.223828
C     -1.063160     6.606432     2.778536
H     -1.464809     6.137973     1.875565
H     -1.904242     6.826988     3.445474
