32
Energy = -1142.551032362 Hartree (EUMP2 CORRECTED)
O      1.817582     0.496391     0.711555
C      1.900306     1.486883    -0.337457
H      2.813776     1.274320    -0.900946
H      1.946562     2.496761     0.087249
C      0.421003     0.325253     1.038552
H      0.199016    -0.749065     0.990185
H      0.219366     0.703164     2.046332
C      0.614231     1.305278    -1.126372
H      0.667882     0.394010    -1.738854
H      0.373421     2.167107    -1.755382
C     -0.393598     1.124807     0.015116
H     -1.299697     0.580543    -0.270229
O     -0.708462     2.367404     0.623064
P     -1.365600     3.754952    -0.087260
O     -0.223585     4.675090    -0.440322
O     -2.540407     4.136719     0.778875
O     -1.978249     3.273500    -1.588607
C     -2.505740     2.025521    -1.998314
H     -2.981870     1.486199    -1.167785
H     -1.712815     1.399694    -2.436814
C     -3.572726     2.282176    -3.056572
H     -3.779998     1.339313    -3.581758
O     -4.822161     2.687327    -2.480803
C     -4.720281     4.109616    -2.218027
H     -5.742386     4.498286    -2.274277
H     -4.314558     4.269162    -1.214471
C     -3.783738     4.677055    -3.303208
H     -2.986463     5.265458    -2.844331
H     -4.327873     5.311403    -4.012790
C     -3.205198     3.429616    -4.003778
H     -2.124321     3.508353    -4.156526
H     -3.689548     3.263882    -4.973473
