32
Energy = -1142.553257424 Hartree (EUMP2 CORRECTED)
O      0.938061    -0.423873    -0.196550
C      1.566300     0.586905    -1.005613
H      2.303802     0.076463    -1.633215
H      2.080790     1.317127    -0.365422
C     -0.348244     0.102592     0.214949
H     -1.076094    -0.706731     0.089496
H     -0.311466     0.410583     1.265765
C      0.412269     1.226766    -1.760302
H      0.076696     0.553839    -2.560306
H      0.612728     2.211654    -2.190581
C     -0.655597     1.320505    -0.667547
H     -1.667093     1.302985    -1.083409
O     -0.484611     2.491046     0.138131
P     -1.204185     3.925098    -0.423932
O     -1.922671     4.535921     0.750519
O     -1.845780     3.630657    -1.760894
O      0.174608     4.839013    -0.734157
C      1.476972     4.532584    -0.260807
H      1.710438     5.143942     0.622975
H      1.536883     3.477215     0.023193
C      2.490276     4.851693    -1.354612
H      1.933286     5.064044    -2.281599
O      3.263182     6.017891    -0.995270
C      4.315593     6.076638    -1.959850
H      3.958483     6.593651    -2.863948
H      5.127536     6.661625    -1.518538
C      4.696469     4.610710    -2.279430
H      5.682686     4.349726    -1.881966
H      4.721233     4.441047    -3.361482
C      3.573101     3.801858    -1.605409
H      3.905884     3.400239    -0.640770
H      3.211847     2.967749    -2.215788
