32
Energy = -1142.561904552 Hartree (EUMP2 CORRECTED)
O      1.749758    -0.209830     0.154462
C      2.041608     0.862555    -0.754390
H      2.874164     0.535652    -1.386386
H      2.336501     1.763342    -0.200264
C      0.335144    -0.140832     0.496747
H     -0.111425    -1.104604     0.218102
H      0.232077     0.047375     1.565269
C      0.736616     1.092537    -1.499694
H      0.578125     0.290717    -2.233373
H      0.660484     2.065882    -1.993031
C     -0.274551     0.976372    -0.360490
H     -1.270843     0.675157    -0.718163
O     -0.403067     2.273253     0.219949
P     -0.640064     2.704483     1.836253
O      0.166659     1.781188     2.730658
O     -2.096546     3.011182     2.058226
O      0.154581     4.163428     1.734131
C      1.577749     4.152587     1.624650
H      1.853119     4.510620     0.623376
H      1.971273     3.138343     1.776996
C      2.165215     5.069820     2.683154
H      3.260619     5.050219     2.592533
O      1.782588     6.445825     2.458701
C      0.614252     6.687349     3.266207
H      0.527846     7.773665     3.373376
H     -0.273620     6.282950     2.769267
C      0.904430     5.953438     4.572403
H     -0.009672     5.695918     5.118071
H      1.529761     6.582479     5.217600
C      1.679750     4.708198     4.104434
H      1.040428     3.821696     4.066919
H      2.525952     4.487405     4.764706
