32
Energy = -1142.565665480 Hartree (EUMP2 CORRECTED)
O      0.085031    -0.123111     0.009751
C      1.096503     0.604757    -0.723936
H      1.566976    -0.109982    -1.406287
H      1.846711     1.006562    -0.031456
C     -0.971693     0.805737     0.353318
H     -1.912283     0.400662    -0.043055
H     -1.041219     0.896737     1.442537
C      0.335379     1.730420    -1.403714
H     -0.228200     1.345278    -2.264184
H      0.958268     2.572263    -1.718183
C     -0.618019     2.148261    -0.283634
H     -1.485306     2.704580    -0.652223
O      0.098391     2.925826     0.677656
P      0.017066     4.615408     0.579562
O     -1.036476     4.956065    -0.457248
O      1.424803     5.146236     0.552990
O     -0.648586     4.944499     2.083656
C     -1.000279     3.987091     3.071815
H     -0.562061     4.316999     4.023143
H     -0.603903     2.995610     2.819445
C     -2.511642     3.912954     3.227491
H     -2.746199     3.160095     3.995680
O     -3.029671     5.167436     3.733313
C     -3.621889     5.858204     2.618193
H     -4.297641     6.611347     3.036041
H     -2.841551     6.338037     2.015270
C     -4.312488     4.750129     1.835334
H     -4.551523     5.038037     0.805774
H     -5.235905     4.453773     2.349077
C     -3.251967     3.643883     1.900411
H     -2.567553     3.765893     1.058226
H     -3.682021     2.635793     1.870696
