32
Energy = -1142.573209221 Hartree (EUMP2 CORRECTED)
O      1.003180     0.408088     1.221862
C      1.804657     1.076203     0.218981
H      2.636601     0.406146    -0.020139
H      2.195321     2.019370     0.621226
C     -0.375409     0.804319     1.030667
H     -0.965742    -0.104702     0.852009
H     -0.740220     1.310970     1.930272
C      0.851252     1.340212    -0.933135
H      0.669658     0.415891    -1.498578
H      1.178708     2.138318    -1.605015
C     -0.411485     1.745912    -0.169166
H     -1.332754     1.649614    -0.758180
O     -0.297130     3.079017     0.332334
P     -0.564884     4.323981    -0.799585
O     -1.907100     4.097329    -1.447952
O      0.723708     4.522164    -1.570072
O     -0.741568     5.522818     0.335618
C      0.355993     5.782176     1.216789
H      0.890181     6.674814     0.867001
H      1.054799     4.935429     1.236474
C     -0.193431     6.017406     2.612582
H      0.649952     6.211416     3.290759
O     -1.009201     7.212233     2.653045
C     -2.380044     6.784494     2.560309
H     -2.993927     7.615012     2.923542
H     -2.630782     6.553674     1.518780
C     -2.431036     5.536416     3.433605
H     -3.293374     4.897625     3.212245
H     -2.474484     5.829682     4.489854
C     -1.092037     4.859312     3.102602
H     -1.208425     4.124735     2.301560
H     -0.654969     4.355027     3.972019
