32
Energy = -1142.572675784 Hartree (EUMP2 CORRECTED)
O      0.421710    -0.231930     0.135794
C      1.478148     0.687858    -0.223474
H      2.258820     0.095280    -0.710340
H      1.882804     1.165436     0.677996
C     -0.822688     0.507586     0.143322
H     -1.527806    -0.025966    -0.507679
H     -1.220930     0.551005     1.162868
C      0.800114     1.710341    -1.118221
H      0.611651     1.279726    -2.111050
H      1.329239     2.659513    -1.227937
C     -0.516784     1.915897    -0.371627
H     -1.306870     2.317372    -1.017183
O     -0.313926     2.758790     0.765605
P     -0.481472     4.429160     0.525669
O     -0.338142     4.723566    -0.946825
O      0.301736     5.068101     1.642477
O     -2.122787     4.563109     0.860119
C     -2.547707     4.163160     2.163735
H     -2.459630     5.009137     2.857019
H     -1.929275     3.334322     2.537877
C     -3.991975     3.704744     2.075524
H     -4.314480     3.372713     3.072333
O     -4.873493     4.796581     1.725678
C     -5.093551     4.716218     0.306904
H     -5.990597     5.306022     0.093132
H     -4.231193     5.126933    -0.230026
C     -5.251388     3.221306     0.048681
H     -5.082270     2.949866    -0.999471
H     -6.262404     2.904551     0.332127
C     -4.202762     2.617433     0.996652
H     -3.261305     2.441200     0.470749
H     -4.536500     1.671311     1.437273
