32
Energy = -1142.570650009 Hartree (EUMP2 CORRECTED)
O      0.893389    -0.337852     1.034811
C      1.799485     0.383010     0.175022
H      2.634408    -0.290594    -0.043704
H      2.173261     1.279713     0.686910
C     -0.448496     0.160347     0.791791
H     -1.075094    -0.701469     0.527405
H     -0.835332     0.640696     1.695420
C      0.955289     0.764671    -1.030493
H      0.797503    -0.111867    -1.673064
H      1.357830     1.590324    -1.623683
C     -0.350004     1.173677    -0.349839
H     -1.213431     1.155782    -1.022780
O     -0.176085     2.482874     0.190844
P     -1.332438     3.663990    -0.158199
O     -2.046206     4.004671     1.132673
O     -2.033148     3.291569    -1.442035
O     -0.274973     4.902415    -0.516094
C      0.472490     5.486037     0.554267
H      1.536890     5.281164     0.379376
H      0.170081     5.058007     1.519338
C      0.234467     6.986163     0.577424
H      0.825494     7.419520     1.397113
O      0.729823     7.610533    -0.630095
C     -0.393073     7.734703    -1.523161
H     -0.119450     8.490507    -2.266789
H     -0.589390     6.774770    -2.012477
C     -1.547812     8.142680    -0.613889
H     -2.526007     7.905656    -1.046278
H     -1.502774     9.222150    -0.424362
C     -1.264637     7.346648     0.672258
H     -1.864930     6.434049     0.727800
H     -1.470380     7.940237     1.570159
