32
Energy = -1142.563619361 Hartree (EUMP2 CORRECTED)
O      1.664073     0.144554    -0.123154
C      1.932344     1.241407    -1.018839
H      2.711445     0.902542    -1.709556
H      2.304002     2.105915    -0.452246
C      0.294017     0.274486     0.334137
H     -0.189825    -0.697651     0.180034
H      0.278808     0.532885     1.398291
C      0.592126     1.542151    -1.668708
H      0.367484     0.781582    -2.428493
H      0.506749     2.534395    -2.119481
C     -0.364776     1.387962    -0.484079
H     -1.380559     1.138298    -0.807082
O     -0.400559     2.560674     0.338294
P     -1.315854     3.870382    -0.242106
O     -1.773241     4.601988     0.993781
O     -2.198611     3.381511    -1.362675
O     -0.091048     4.770864    -0.971199
C      1.120128     4.942328    -0.247748
H      1.019472     5.761796     0.482102
H      1.366882     4.024698     0.301863
C      2.246376     5.261987    -1.210127
H      2.136544     4.637120    -2.104011
O      2.193875     6.633594    -1.683279
C      3.233367     7.358874    -1.024489
H      3.438975     8.249253    -1.626146
H      2.912118     7.676011    -0.018465
C      4.383904     6.364304    -0.937250
H      5.157980     6.651448    -0.216125
H      4.847410     6.254858    -1.924485
C      3.628345     5.092103    -0.542466
H      3.513098     5.046094     0.548840
H      4.126322     4.170576    -0.860104
