32
Energy = -1142.563501435 Hartree (EUMP2 CORRECTED)
O      1.968471    -0.084157     0.308761
C      2.536387     1.191187    -0.053214
H      3.570836     1.004440    -0.359692
H      2.513266     1.872914     0.806658
C      0.537904    -0.021994     0.067194
H      0.287550    -0.830106    -0.633999
H     -0.006803    -0.151344     1.003525
C      1.628859     1.689787    -1.167243
H      1.817864     1.125717    -2.091329
H      1.704657     2.763172    -1.364019
C      0.256604     1.334817    -0.591402
H     -0.517833     1.237984    -1.364245
O     -0.151224     2.407499     0.258017
P     -0.379842     2.417824     1.925247
O      0.881133     2.978743     2.550908
O     -1.050372     1.147101     2.387959
O     -1.564434     3.586938     1.930352
C     -1.182987     4.958192     1.792252
H     -1.700947     5.367720     0.914781
H     -0.097302     5.045300     1.654483
C     -1.590640     5.733825     3.033277
H     -1.229768     6.767092     2.929166
O     -3.022024     5.836438     3.165921
C     -3.480730     4.653372     3.860308
H     -4.346073     4.967187     4.455305
H     -3.789636     3.900275     3.128562
C     -2.300363     4.144169     4.709037
H     -2.066866     3.108254     4.453053
H     -2.523884     4.195688     5.781262
C     -1.129992     5.075114     4.335470
H     -0.190374     4.529469     4.203509
H     -0.995196     5.851553     5.098415
