32
Energy = -1142.565891463 Hartree (EUMP2 CORRECTED)
O      0.207334    -0.221488     0.745467
C      1.304989     0.231922    -0.072923
H      1.804822    -0.663070    -0.456028
H      2.010228     0.820853     0.528627
C     -0.784815     0.833727     0.761306
H     -1.752159     0.372002     0.529174
H     -0.821837     1.299885     1.751388
C      0.648980     1.101497    -1.132079
H      0.134189     0.470480    -1.869623
H      1.331732     1.789093    -1.637060
C     -0.368564     1.872252    -0.285653
H     -1.223274     2.254439    -0.856324
O      0.273737     2.952148     0.399062
P      0.208851     4.470532    -0.311639
O      0.857414     5.415609     0.658221
O     -1.167519     4.663496    -0.923714
O      1.271192     4.210386    -1.601081
C      0.762843     4.375453    -2.925401
H      1.546097     3.999320    -3.593030
H     -0.151013     3.783534    -3.061393
C      0.494707     5.838698    -3.278072
H      0.863605     6.470923    -2.455038
O      1.226814     6.161083    -4.490518
C      0.703193     7.413328    -4.955999
H      1.337563     8.234293    -4.590627
H      0.754622     7.394803    -6.049688
C     -0.739094     7.530394    -4.406140
H     -1.476664     7.673124    -5.203670
H     -0.822203     8.382931    -3.722989
C     -0.933339     6.212857    -3.645765
H     -1.335858     5.435573    -4.308113
H     -1.571205     6.277933    -2.761449
