32
Energy = -1142.568363420 Hartree (EUMP2 CORRECTED)
O      1.532246     0.283519     0.551777
C      2.072967     1.311464    -0.309033
H      2.907974     0.859304    -0.853172
H      2.433986     2.155800     0.291669
C      0.128317     0.573809     0.755677
H     -0.437374    -0.327841     0.487376
H     -0.048850     0.824094     1.807068
C      0.898988     1.731791    -1.175906
H      0.694446     0.966929    -1.937303
H      1.013861     2.704179    -1.661135
C     -0.226643     1.760372    -0.141380
H     -1.220822     1.679910    -0.594979
O     -0.140792     2.939354     0.662202
P     -0.761238     4.369719     0.017648
O     -1.492774     4.043154    -1.269085
O      0.307629     5.423894     0.138938
O     -1.895906     4.613018     1.231666
C     -3.224910     4.987542     0.883670
H     -3.515924     4.535503    -0.071441
H     -3.294278     6.085293     0.794513
C     -4.150044     4.519046     1.992983
H     -5.141998     4.963078     1.831506
O     -4.356173     3.095237     1.970883
C     -3.264063     2.487073     2.695370
H     -3.670366     1.575886     3.148464
H     -2.458991     2.230148     2.000957
C     -2.784561     3.527185     3.726495
H     -1.716409     3.713856     3.598862
H     -2.966077     3.191897     4.754462
C     -3.600055     4.793036     3.396974
H     -2.986361     5.698871     3.426637
H     -4.436794     4.909989     4.096148
