32
Energy = -1142.577216924 Hartree (EUMP2 CORRECTED)
O      0.265258     0.000892     1.384213
C      1.329444     0.714876     0.717737
H      2.226157     0.091931     0.795139
H      1.506235     1.677142     1.216331
C     -0.983685     0.371597     0.749978
H     -1.476873    -0.553984     0.425809
H     -1.619467     0.901310     1.466592
C      0.821494     0.926382    -0.697947
H      0.879858    -0.012844    -1.264667
H      1.329046     1.723946    -1.245966
C     -0.643229     1.279618    -0.430378
H     -1.289549     1.119877    -1.300343
O     -0.779310     2.631938     0.023893
P     -0.789066     3.846377    -1.138243
O     -1.292025     5.086798    -0.443188
O     -1.330448     3.274924    -2.427187
O      0.863164     4.014828    -1.409632
C      1.615988     4.943844    -0.626725
H      2.472285     4.410855    -0.190691
H      0.990460     5.358773     0.174288
C      2.126700     6.075185    -1.505111
H      2.570354     6.847413    -0.861753
O      3.194301     5.638678    -2.374160
C      2.581957     5.068293    -3.553171
H      3.272887     5.265752    -4.380558
H      2.470941     3.986924    -3.419013
C      1.208080     5.744390    -3.717319
H      0.413310     4.995856    -3.753128
H      1.164528     6.346660    -4.632570
C      1.068123     6.626946    -2.461934
H      0.065386     6.584668    -2.025858
H      1.312355     7.670875    -2.693596
