32
Energy = -1142.569399365 Hartree (EUMP2 CORRECTED)
O      0.708355     0.125651     0.856499
C      1.378085     0.685301    -0.298758
H      1.907111    -0.138313    -0.788562
H      2.098757     1.447648     0.021923
C     -0.518102     0.863029     1.065768
H     -1.354706     0.153543     1.005590
H     -0.501221     1.329076     2.056668
C      0.271297     1.310367    -1.129916
H     -0.290662     0.533755    -1.666503
H      0.619201     2.077331    -1.827365
C     -0.599045     1.920977    -0.029715
H     -1.628785     2.131086    -0.346096
O     -0.000152     3.114085     0.484718
P     -0.217541     4.507253    -0.461604
O     -1.700996     4.675556    -0.709876
O      0.798372     4.487021    -1.580892
O      0.234397     5.609604     0.700088
C      0.926234     5.301317     1.909486
H      1.799084     5.965517     1.966183
H      1.263854     4.258623     1.915775
C      0.038396     5.555317     3.117593
H      0.585833     5.226399     4.012771
O     -0.218746     6.958097     3.316877
C     -1.369453     7.305615     2.510774
H     -1.886631     8.106545     3.051023
H     -1.031182     7.676899     1.538244
C     -2.207875     6.024420     2.349714
H     -2.366694     5.793440     1.293350
H     -3.182253     6.118382     2.844036
C     -1.352543     4.925748     3.011254
H     -1.338241     4.003318     2.423867
H     -1.717276     4.700683     4.021148
