32
Energy = -1142.561752395 Hartree (EUMP2 CORRECTED)
O      0.303523    -0.267733     0.314892
C      1.576322     0.387057     0.457004
H      2.340807    -0.396858     0.474103
H      1.610142     0.956751     1.395416
C     -0.597151     0.652162    -0.360830
H     -1.013064     0.122319    -1.227313
H     -1.402897     0.958976     0.311671
C      1.657198     1.324167    -0.739798
H      1.868868     0.754377    -1.654309
H      2.393149     2.125392    -0.622381
C      0.233586     1.872086    -0.776861
H     -0.076796     2.235520    -1.757020
O      0.140245     2.887596     0.230625
P     -0.885871     4.204432     0.020842
O     -0.367597     5.255317     0.966483
O     -2.312395     3.705427    -0.038128
O     -0.601986     4.689400    -1.576426
C      0.599448     4.566556    -2.315915
H      1.268193     3.802497    -1.907340
H      1.148292     5.525419    -2.297675
C      0.223431     4.245801    -3.754813
H      1.138606     4.201692    -4.362894
O     -0.379420     2.936198    -3.850369
C     -1.811100     3.125262    -3.874391
H     -2.238575     2.207007    -4.289064
H     -2.185435     3.296509    -2.858150
C     -1.990809     4.353274    -4.758327
H     -2.962075     4.839051    -4.614824
H     -1.894326     4.066431    -5.812564
C     -0.814618     5.241326    -4.322991
H     -1.129182     5.931502    -3.535379
H     -0.400793     5.822945    -5.154513
