32
Energy = -1142.570066575 Hartree (EUMP2 CORRECTED)
O      1.582140     0.433549     0.321232
C      1.934954     1.575018    -0.493576
H      2.933685     1.379177    -0.897540
H      1.953935     2.483783     0.121468
C      0.143070     0.272409     0.265433
H     -0.066225    -0.737389    -0.112513
H     -0.278727     0.390206     1.268364
C      0.831774     1.657347    -1.533675
H      0.962957     0.875794    -2.294760
H      0.732825     2.627354    -2.023788
C     -0.393336     1.349126    -0.673685
H     -1.256049     1.020896    -1.263355
O     -0.743713     2.469631     0.142473
P     -1.507108     3.771630    -0.583729
O     -2.525293     4.321180     0.379301
O     -1.810183     3.426915    -2.029403
O     -0.136015     4.762164    -0.567350
C     -0.202510     5.915605    -1.403150
H     -0.969131     6.612180    -1.036083
H     -0.452674     5.621402    -2.434689
C      1.152871     6.598881    -1.380910
H      1.125941     7.445930    -2.080127
O      1.435736     7.174364    -0.086599
C      2.217163     6.206304     0.634436
H      2.698136     6.740780     1.459607
H      1.566272     5.415255     1.022685
C      3.188633     5.670393    -0.413358
H      3.602770     4.691245    -0.147987
H      4.018837     6.375835    -0.538457
C      2.316598     5.624698    -1.680301
H      1.920968     4.619500    -1.844724
H      2.873699     5.927648    -2.573872
