32
Energy = -1142.568268220 Hartree (EUMP2 CORRECTED)
O      1.445394    -0.004512     0.298130
C      1.926738     1.032688    -0.578947
H      2.743638     0.601318    -1.165023
H      2.311377     1.877954     0.009125
C      0.077190     0.326273     0.640363
H     -0.508298    -0.594610     0.537050
H      0.023207     0.687059     1.673499
C      0.705039     1.436029    -1.386639
H      0.491106     0.664388    -2.138371
H      0.793914     2.405433    -1.881998
C     -0.388183     1.432197    -0.316235
H     -1.380797     1.245509    -0.736619
O     -0.414908     2.661086     0.425724
P     -1.403669     3.902108    -0.153201
O     -1.883993     4.644593     1.067407
O     -2.290637     3.360129    -1.249369
O     -0.262464     4.869046    -0.933855
C      1.087730     4.945753    -0.503883
H      1.469295     3.964704    -0.207001
H      1.169824     5.624034     0.364274
C      1.912430     5.493601    -1.656740
H      2.928892     5.707388    -1.299061
O      2.066197     4.482604    -2.684785
C      1.052285     4.735902    -3.675717
H      1.360178     4.205939    -4.582654
H      0.081654     4.364071    -3.327521
C      1.048930     6.253789    -3.806949
H      0.120189     6.639263    -4.241703
H      1.888606     6.570366    -4.437331
C      1.254824     6.708342    -2.352667
H      0.295914     6.928215    -1.876663
H      1.890000     7.599073    -2.286752
