32
Energy = -1142.570596325 Hartree (EUMP2 CORRECTED)
O      0.305828     0.590176    -2.113815
C      1.456515     1.447485    -2.289135
H      1.698141     1.435558    -3.356187
H      2.297945     1.063823    -1.700958
C     -0.164171     0.909971    -0.792779
H     -1.190606     0.539286    -0.715008
H      0.461843     0.432856    -0.030442
C      1.014279     2.806976    -1.750475
H      1.835851     3.362373    -1.294698
H      0.561765     3.410215    -2.546720
C     -0.056354     2.444770    -0.692379
H     -1.015591     2.894432    -0.973576
O      0.159011     2.938920     0.632597
P      1.511922     2.499334     1.531862
O      1.681514     3.590177     2.560648
O      2.592008     1.986313     0.611772
O      0.906449     1.133989     2.297240
C     -0.130479     1.314115     3.264368
H     -1.040290     0.825656     2.889588
H     -0.331086     2.381454     3.428535
C      0.291684     0.673374     4.575114
H     -0.523504     0.795043     5.303123
O      0.463888    -0.754708     4.418305
C      1.870511    -0.984351     4.212818
H      2.051390    -2.040990     4.435638
H      2.137086    -0.764334     3.173408
C      2.546865    -0.016317     5.177210
H      3.582610     0.204036     4.896381
H      2.542135    -0.441932     6.188254
C      1.638185     1.221926     5.097027
H      2.030621     1.969229     4.401382
H      1.516366     1.702982     6.074133
