32
Energy = -1142.565509892 Hartree (EUMP2 CORRECTED)
O      1.136606     0.033177     0.594731
C      1.656188     1.028800    -0.311178
H      2.501650     0.569466    -0.833010
H      2.007434     1.907685     0.244785
C     -0.257502     0.348531     0.832477
H     -0.824318    -0.580817     0.699329
H     -0.389265     0.722489     1.853536
C      0.471525     1.377471    -1.196361
H      0.290131     0.565510    -1.913881
H      0.559659     2.325818    -1.731371
C     -0.665014     1.432050    -0.171392
H     -1.649098     1.256851    -0.619023
O     -0.678417     2.681721     0.529088
P     -1.517609     3.966687    -0.179644
O     -1.709098     4.974624     0.923621
O     -2.593565     3.409783    -1.078420
O     -0.320382     4.536799    -1.221936
C      0.893243     4.971485    -0.607300
H      1.312209     4.183867     0.029764
H      0.678774     5.843656     0.023664
C      1.928294     5.321971    -1.688164
H      2.305621     6.341753    -1.524768
O      3.090326     4.441692    -1.542989
C      3.403294     3.842666    -2.809926
H      4.493492     3.759606    -2.877711
H      2.967148     2.833422    -2.862788
C      2.774548     4.760149    -3.848854
H      2.610132     4.264425    -4.812542
H      3.412303     5.638137    -4.012978
C      1.477786     5.145231    -3.139360
H      0.737069     4.343411    -3.199116
H      1.010574     6.053925    -3.533382
