32
Energy = -1142.561366846 Hartree (EUMP2 CORRECTED)
O      1.425956    -0.484362    -0.035908
C      1.657862     0.231666    -1.277020
H      1.060764    -0.252089    -2.063124
H      2.717807     0.133959    -1.537929
C      0.737131     0.402528     0.867605
H      0.009701    -0.187817     1.432273
H      1.440229     0.881185     1.562647
C      1.228180     1.674949    -1.037042
H      0.905665     2.179632    -1.951417
H      2.024082     2.277447    -0.593813
C      0.108066     1.479791    -0.010587
H     -0.781228     1.069568    -0.518294
O     -0.311872     2.552121     0.813821
P     -0.095631     4.203906     0.562075
O      1.081253     4.427814    -0.364296
O     -0.274233     4.845286     1.907236
O     -1.499954     4.545354    -0.297319
C     -1.542128     4.242117    -1.687244
H     -1.940087     3.227169    -1.838857
H     -0.534417     4.309763    -2.123036
C     -2.450659     5.247981    -2.371363
H     -2.457377     5.038639    -3.450338
O     -3.821763     5.100707    -1.938092
C     -4.025996     6.057661    -0.881379
H     -5.108272     6.187739    -0.780819
H     -3.598212     5.679272     0.053138
C     -3.288964     7.301581    -1.366840
H     -3.031412     7.984667    -0.550162
H     -3.913160     7.840469    -2.089945
C     -2.047474     6.705808    -2.052448
H     -1.188125     6.710333    -1.376345
H     -1.776462     7.254137    -2.961487
