32
Energy = -1142.558518289 Hartree (EUMP2 CORRECTED)
O      0.280206     1.069546    -1.740951
C      1.063591     2.248174    -1.465234
H      1.512754     2.559386    -2.414055
H      1.848648     2.011486    -0.737940
C     -0.807530     1.030766    -0.797421
H     -1.742583     0.998768    -1.375328
H     -0.743163     0.137785    -0.174753
C      0.058546     3.236038    -0.890832
H      0.508644     4.053164    -0.320343
H     -0.571133     3.641969    -1.694949
C     -0.763400     2.324087     0.029365
H     -1.779415     2.705349     0.194916
O     -0.155271     2.288154     1.310897
P      0.851828     1.222890     2.119644
O      0.016200     0.356958     3.038285
O      2.027411     2.046351     2.584889
O      1.380436     0.261642     0.849301
C      1.184482    -1.153023     0.871648
H      0.434628    -1.412876     1.630684
H      0.832819    -1.447368    -0.126477
C      2.482042    -1.891239     1.160265
H      2.242442    -2.958309     1.272734
O      3.407562    -1.821626     0.058558
C      4.149897    -0.590787     0.208794
H      5.130746    -0.769718    -0.245920
H      3.635697     0.209939    -0.333135
C      4.208317    -0.288810     1.717072
H      3.850193     0.721308     1.931215
H      5.228427    -0.394376     2.105300
C      3.263808    -1.330816     2.351185
H      2.607888    -0.888757     3.107545
H      3.834592    -2.143863     2.816000
