32
Energy = -1142.571625384 Hartree (EUMP2 CORRECTED)
O      1.247268     0.242817     0.561732
C      1.815503     1.473429     0.061270
H      2.890549     1.301172    -0.053525
H      1.644335     2.287510     0.777446
C     -0.125757     0.172232     0.104048
H     -0.250216    -0.785190    -0.418218
H     -0.805515     0.220792     0.960730
C      1.067943     1.733179    -1.235104
H      1.421803     1.053971    -2.022842
H      1.116519     2.763208    -1.588688
C     -0.355503     1.363249    -0.825214
H     -0.998121     1.130837    -1.680679
O     -0.950623     2.399474    -0.036042
P     -1.542457     3.749582    -0.821437
O     -2.682887     4.312747    -0.015541
O     -1.631701     3.446645    -2.307113
O     -0.175297     4.719238    -0.589794
C     -0.302913     6.028498    -1.153253
H     -0.539804     6.737969    -0.349359
H     -1.106106     6.066808    -1.903389
C      0.999614     6.413892    -1.827378
H      0.903772     7.447696    -2.191093
O      2.105777     6.431822    -0.898694
C      2.834283     5.208781    -1.083479
H      3.836907     5.372356    -0.674917
H      2.339157     4.396758    -0.539885
C      2.803133     4.982124    -2.592349
H      3.007158     3.942533    -2.873381
H      3.554780     5.622061    -3.070755
C      1.381334     5.436945    -2.960657
H      0.677962     4.597383    -2.973207
H      1.343083     5.924903    -3.940714
