32
Energy = -1142.564349792 Hartree (EUMP2 CORRECTED)
O      1.088541    -0.381065     0.140452
C      1.887576     0.782295    -0.151252
H      2.873500     0.420306    -0.459170
H      1.986823     1.411153     0.743990
C     -0.300352    -0.002211    -0.027019
H     -0.773019    -0.776956    -0.642320
H     -0.794990     0.054031     0.948265
C      1.105322     1.510765    -1.231203
H      1.212223     0.987732    -2.191540
H      1.369458     2.564362    -1.344246
C     -0.324153     1.375735    -0.698352
H     -1.095780     1.449298    -1.473770
O     -0.562791     2.356427     0.313291
P     -1.345468     3.774299    -0.145341
O     -1.586207     4.528460     1.130000
O     -2.393356     3.432040    -1.185691
O     -0.066266     4.526114    -0.963693
C     -0.231185     4.847283    -2.339495
H     -1.234748     5.251850    -2.510274
H     -0.117924     3.958733    -2.983408
C      0.825633     5.881835    -2.715322
H      0.507585     6.346861    -3.660335
O      0.925228     6.952653    -1.767933
C      2.054175     6.656510    -0.931299
H      2.330135     7.589146    -0.430369
H      1.775336     5.898490    -0.190296
C      3.101526     6.137588    -1.915057
H      3.903985     5.570615    -1.429068
H      3.548953     6.981953    -2.452847
C      2.243748     5.278201    -2.859597
H      2.243391     4.234930    -2.527690
H      2.596141     5.303556    -3.896256
