32
Energy = -1142.568047782 Hartree (EUMP2 CORRECTED)
O      1.706964     0.827547     1.424199
C      1.876348     2.145627     0.858897
H      2.951723     2.348206     0.846285
H      1.364363     2.893050     1.478143
C      0.482469     0.273681     0.885930
H      0.724297    -0.710898     0.465531
H     -0.261459     0.166767     1.681803
C      1.228329     2.054657    -0.512298
H      1.874551     1.497168    -1.204232
H      0.973797     3.023344    -0.948453
C     -0.026727     1.243084    -0.183747
H     -0.444247     0.725131    -1.054032
O     -1.011100     2.068224     0.433358
P     -2.014616     3.086888    -0.447834
O     -1.654964     4.522490    -0.135538
O     -3.418837     2.541172    -0.349573
O     -1.414237     2.719814    -1.983880
C     -1.145851     3.777557    -2.905588
H     -0.133546     3.622033    -3.305380
H     -1.182907     4.744999    -2.387514
C     -2.128066     3.759790    -4.063593
H     -1.912664     4.628841    -4.701789
O     -1.945012     2.607785    -4.910602
C     -2.734646     1.532135    -4.353516
H     -3.052906     0.917769    -5.203364
H     -2.108485     0.933005    -3.683693
C     -3.899599     2.181575    -3.586008
H     -3.926414     1.847227    -2.546136
H     -4.863910     1.956359    -4.056712
C     -3.595683     3.691508    -3.635153
H     -3.772990     4.168434    -2.666167
H     -4.211805     4.192321    -4.391685
