32
Energy = -1142.558787688 Hartree (EUMP2 CORRECTED)
O      1.043860     0.010090     1.291303
C      2.140768     0.847898     0.891280
H      3.058520     0.270057     1.040834
H      2.172661     1.758482     1.504781
C     -0.133424     0.443208     0.557091
H     -0.572526    -0.448463     0.093447
H     -0.859295     0.905360     1.230608
C      1.839000     1.193174    -0.560088
H      2.039347     0.324424    -1.201275
H      2.389666     2.062321    -0.931482
C      0.339539     1.468217    -0.483932
H     -0.192094     1.324190    -1.428045
O      0.170186     2.796556     0.022390
P     -1.203081     3.657510    -0.452828
O     -1.004341     5.057945     0.063752
O     -2.406384     2.786445    -0.176287
O     -1.048373     3.728818    -2.132844
C     -0.044446     3.214914    -2.980656
H      0.884967     3.004708    -2.432233
H     -0.393681     2.294008    -3.471583
C      0.268654     4.266651    -4.034935
H      1.077914     3.892168    -4.679272
O     -0.862575     4.477456    -4.908004
C     -1.546406     5.652184    -4.430504
H     -2.169404     6.009732    -5.256506
H     -2.169198     5.396215    -3.566493
C     -0.417090     6.597411    -4.039585
H     -0.741192     7.382635    -3.348333
H     -0.002477     7.067330    -4.940077
C      0.597708     5.636849    -3.400378
H      0.443431     5.593952    -2.317556
H      1.633627     5.934196    -3.599259
