32
Energy = -1142.568394577 Hartree (EUMP2 CORRECTED)
O      1.727063     0.058201    -0.432589
C      1.052510     0.367625    -1.673599
H      1.194114    -0.493755    -2.333897
H      1.497658     1.260348    -2.131211
C      1.026536     0.738142     0.636058
H      0.730713    -0.018323     1.374937
H      1.688449     1.474554     1.103444
C     -0.388464     0.632993    -1.274631
H     -0.902958    -0.312327    -1.054529
H     -0.953363     1.208052    -2.013371
C     -0.184106     1.431135     0.015749
H     -1.061479     1.429391     0.674714
O      0.199109     2.779265    -0.268711
P     -1.045923     3.806850    -0.779599
O     -2.211045     3.686851     0.167929
O     -1.172550     3.645135    -2.284786
O     -0.249883     5.231000    -0.462592
C      0.982652     5.445028    -1.159753
H      1.303969     4.530247    -1.666204
H      1.739165     5.696201    -0.406795
C      0.891472     6.579708    -2.204245
H      1.272818     7.510121    -1.767520
O      1.779163     6.287253    -3.306552
C      1.006789     5.450735    -4.194946
H      1.514879     5.477386    -5.163739
H      0.980616     4.419886    -3.821162
C     -0.404160     6.044018    -4.195907
H     -1.156719     5.254261    -4.257673
H     -0.530636     6.740422    -5.033342
C     -0.490010     6.784950    -2.842829
H     -1.284341     6.391932    -2.207653
H     -0.661638     7.856756    -2.994798
