32
Energy = -1142.572237531 Hartree (EUMP2 CORRECTED)
O      2.294640     0.745808     0.580422
C      2.285309     2.190849     0.551270
H      3.323024     2.510677     0.414553
H      1.899631     2.584494     1.500400
C      1.010467     0.287487     0.094545
H      1.200744    -0.422616    -0.720515
H      0.462103    -0.210010     0.901210
C      1.354015     2.544743    -0.594846
H      1.854811     2.368072    -1.556762
H      0.953985     3.561899    -0.555860
C      0.239691     1.516514    -0.387517
H     -0.349550     1.321560    -1.290030
O     -0.633738     1.908671     0.678515
P     -1.791240     3.084546     0.413454
O     -1.142019     4.427398     0.137675
O     -2.851009     2.883315     1.467308
O     -2.329669     2.480150    -1.067393
C     -2.843862     3.383059    -2.045065
H     -2.309444     3.193997    -2.986448
H     -2.664124     4.423982    -1.743836
C     -4.326333     3.132338    -2.263244
H     -4.680182     3.812222    -3.053000
O     -4.534984     1.792824    -2.776386
C     -4.989294     0.989068    -1.672445
H     -5.466386     0.102590    -2.103062
H     -4.137738     0.696801    -1.046473
C     -5.933512     1.911981    -0.914930
H     -6.116638     1.584405     0.114123
H     -6.892095     1.973595    -1.445626
C     -5.171298     3.243058    -0.975971
H     -4.527354     3.336467    -0.096319
H     -5.841042     4.109783    -1.011598
