32
Energy = -1142.563523023 Hartree (EUMP2 CORRECTED)
O      1.591124     0.070432    -0.035948
C      1.919833     1.201279    -0.866396
H      2.674586     0.861654    -1.581870
H      2.344491     2.009011    -0.252576
C      0.284307     0.332669     0.527850
H     -0.271272    -0.610820     0.490547
H      0.379792     0.665357     1.568289
C      0.593758     1.612129    -1.482987
H      0.326126     0.902627    -2.277262
H      0.575516     2.625748    -1.891355
C     -0.369646     1.446694    -0.304646
H     -1.380304     1.192986    -0.637946
O     -0.432248     2.617732     0.526027
P     -1.426137     3.877964    -0.003110
O     -1.942833     4.541043     1.248753
O     -2.283318     3.392627    -1.147151
O     -0.273907     4.896525    -0.696899
C      1.063244     4.964645    -0.235099
H      1.387274     3.981630     0.121439
H      1.161229     5.677729     0.601327
C      1.937962     5.424190    -1.398043
H      2.982701     5.182214    -1.150687
O      1.652071     4.723818    -2.618065
C      0.833302     5.598051    -3.414651
H      0.889165     5.232682    -4.444450
H     -0.201539     5.560034    -3.054816
C      1.464649     6.971581    -3.199443
H      0.798995     7.797334    -3.475591
H      2.382951     7.049975    -3.793781
C      1.784193     6.933594    -1.696120
H      0.943556     7.338260    -1.121627
H      2.684950     7.498299    -1.433676
