32
Energy = -1142.568306552 Hartree (EUMP2 CORRECTED)
O      1.630609    -0.174218    -0.142040
C      1.053080     0.087390    -1.441912
H      1.164725    -0.830290    -2.027841
H      1.591598     0.907090    -1.934208
C      0.927226     0.637083     0.828348
H      0.535572    -0.035129     1.603147
H      1.616592     1.359399     1.277782
C     -0.383321     0.487104    -1.153839
H     -0.981016    -0.399070    -0.900210
H     -0.860349     1.047095    -1.962893
C     -0.191754     1.364065     0.086156
H     -1.100715     1.473977     0.691340
O      0.304943     2.656584    -0.272163
P     -0.839455     3.747602    -0.877013
O     -1.984491     3.860144     0.096712
O     -1.031819     3.448713    -2.353149
O      0.111682     5.099066    -0.717619
C      1.351191     5.127103    -1.435857
H      1.390259     4.325145    -2.181022
H      2.156518     4.965073    -0.706812
C      1.547045     6.475780    -2.158779
H      2.528559     6.896646    -1.911303
O      1.569279     6.296918    -3.591015
C      0.180652     6.140658    -3.976136
H      0.117608     6.457792    -5.021627
H     -0.116497     5.089992    -3.883275
C     -0.634631     7.015735    -3.002595
H     -1.423431     6.421575    -2.535051
H     -1.094685     7.872506    -3.508279
C      0.402015     7.469598    -1.957648
H      0.003925     7.457671    -0.940319
H      0.776235     8.473773    -2.191007
