32
Energy = -1142.571570125 Hartree (EUMP2 CORRECTED)
O      1.614494    -0.063753     0.209735
C      0.961225    -0.026734    -1.079588
H      1.086413    -1.018366    -1.525851
H      1.434421     0.728810    -1.719498
C      0.925261     0.862579     1.083207
H      0.606810     0.304917     1.973798
H      1.602746     1.671956     1.374298
C     -0.475967     0.356332    -0.773664
H     -1.017606    -0.502356    -0.353999
H     -1.018363     0.762285    -1.631937
C     -0.263892     1.421705     0.305359
H     -1.146635     1.586692     0.935835
O      0.150835     2.663233    -0.270148
P     -1.067359     3.577835    -1.008980
O     -2.229285     3.693461    -0.055938
O     -1.208911     3.093035    -2.441568
O     -0.233874     5.016252    -1.000656
C      0.823065     5.177315    -1.954466
H      0.950141     4.275621    -2.563398
H      1.750128     5.377567    -1.403299
C      0.482870     6.370259    -2.834302
H      0.250326     7.231656    -2.198610
O      1.667634     6.735349    -3.603597
C      1.484297     6.230861    -4.932844
H      2.165429     6.788025    -5.583756
H      1.739403     5.160523    -4.980087
C      0.006026     6.451487    -5.212387
H     -0.370572     5.848430    -6.046573
H     -0.164951     7.510093    -5.442884
C     -0.622965     6.066258    -3.867052
H     -0.884444     5.003061    -3.824020
H     -1.537149     6.630682    -3.657058
