32
Energy = -1142.568338457 Hartree (EUMP2 CORRECTED)
O      1.597533     0.148267    -0.729485
C      0.482424     0.110805    -1.653991
H      0.455033    -0.897081    -2.081054
H      0.637699     0.845298    -2.453046
C      1.232132     0.988952     0.390178
H      1.224535     0.368948     1.297892
H      1.969705     1.790821     0.496959
C     -0.735775     0.476039    -0.823399
H     -1.066628    -0.380815    -0.220671
H     -1.569905     0.856192    -1.419104
C     -0.149201     1.554425     0.090056
H     -0.751551     1.735679     0.988692
O      0.046438     2.781374    -0.615872
P     -1.363458     3.635526    -1.019322
O     -2.303684     3.585549     0.160096
O     -1.785082     3.208837    -2.410813
O     -0.668877     5.147802    -1.066641
C      0.687822     5.410585    -1.419522
H      1.364453     4.735927    -0.880295
H      0.881055     6.439738    -1.097744
C      0.962984     5.314872    -2.914069
H      0.224071     5.928960    -3.450976
O      2.282257     5.901582    -3.132980
C      3.042191     5.047945    -4.009223
H      3.583945     5.690205    -4.713249
H      3.773625     4.478019    -3.417097
C      2.025399     4.118564    -4.660326
H      2.474362     3.184929    -5.018892
H      1.542058     4.617345    -5.510203
C      1.032074     3.917368    -3.516401
H      1.435926     3.217026    -2.774648
H      0.044202     3.554638    -3.807199
