32
Energy = -1142.569580366 Hartree (EUMP2 CORRECTED)
O      1.090929    -0.310125     0.307733
C      1.944655     0.679943    -0.303500
H      2.789540     0.140898    -0.743373
H      2.310414     1.385066     0.454804
C     -0.255363     0.224902     0.324383
H     -0.913474    -0.535855    -0.113152
H     -0.561659     0.435036     1.354280
C      1.046696     1.387154    -1.304074
H      0.880935     0.745185    -2.180050
H      1.403028     2.370605    -1.619623
C     -0.244417     1.518516    -0.493437
H     -1.143413     1.639019    -1.108121
O     -0.143036     2.613616     0.426085
P     -0.761027     4.086967    -0.055914
O     -0.696989     5.004034     1.138340
O     -2.009192     3.866812    -0.886484
O      0.490240     4.492728    -1.123037
C      0.167762     5.309055    -2.248956
H     -0.899074     5.562480    -2.253634
H      0.381561     4.748954    -3.169460
C      0.994396     6.595333    -2.203979
H      2.004201     6.405787    -2.588668
O      0.409995     7.570051    -3.110726
C     -0.328616     8.490377    -2.291922
H     -0.496185     9.388601    -2.894110
H     -1.300799     8.059285    -2.007370
C      0.557235     8.685426    -1.070560
H      0.022876     9.114026    -0.215244
H      1.391622     9.348447    -1.330870
C      1.036555     7.249618    -0.808481
H      0.373050     6.726399    -0.112292
H      2.042195     7.213582    -0.378094
