32
Energy = -1142.564038274 Hartree (EUMP2 CORRECTED)
O      1.725073     0.064243    -0.344841
C      0.728531    -0.014031    -1.392084
H      0.774117    -1.029372    -1.798697
H      0.959422     0.710991    -2.182339
C      1.237233     0.969141     0.673608
H      1.168161     0.411598     1.617813
H      1.937011     1.803419     0.787901
C     -0.583308     0.337658    -0.712317
H     -0.948573    -0.511037    -0.118112
H     -1.359452     0.674400    -1.404844
C     -0.128886     1.466435     0.215479
H     -0.821255     1.657862     1.044283
O      0.086499     2.673973    -0.519732
P     -1.313922     3.496982    -1.004154
O     -2.269299     3.540452     0.163472
O     -1.712841     2.960666    -2.365322
O     -0.620713     5.000047    -1.206844
C      0.779982     5.252000    -1.287695
H      1.352195     4.335328    -1.119062
H      1.044005     5.973045    -0.503651
C      1.145808     5.813423    -2.665406
H      0.932837     6.888434    -2.702981
O      2.582792     5.694091    -2.847504
C      2.783482     4.514540    -3.642677
H      3.800631     4.569472    -4.042315
H      2.687181     3.609660    -3.022892
C      1.674523     4.582856    -4.682345
H      1.484442     3.620666    -5.171257
H      1.944014     5.318175    -5.450431
C      0.482398     5.060612    -3.836662
H     -0.119404     4.221304    -3.474161
H     -0.192182     5.712949    -4.400299
