32
Energy = -1142.565906933 Hartree (EUMP2 CORRECTED)
O      2.017080     0.847896     0.104531
C      1.376321     0.407660    -1.117612
H      1.765754    -0.590550    -1.344807
H      1.635697     1.094110    -1.933755
C      1.047629     1.583002     0.890087
H      0.849320     1.018768     1.812766
H      1.455381     2.567791     1.137205
C     -0.116254     0.451806    -0.834338
H     -0.425796    -0.429355    -0.255375
H     -0.734094     0.553087    -1.730806
C     -0.204026     1.709419     0.033456
H     -1.122250     1.771993     0.633005
O     -0.051813     2.884848    -0.759122
P     -1.438003     3.433688    -1.578125
O     -2.489365     3.793245    -0.561287
O     -1.685488     2.493604    -2.743429
O     -0.717354     4.826699    -2.124601
C      0.201729     4.664258    -3.198458
H      0.611737     3.646908    -3.200224
H     -0.309317     4.809681    -4.162165
C      1.324981     5.688459    -3.075609
H      0.937397     6.697984    -3.249418
O      1.923216     5.721398    -1.775758
C      2.749246     4.546600    -1.683405
H      3.541904     4.780216    -0.966348
H      2.153216     3.710906    -1.301647
C      3.274627     4.285837    -3.114955
H      3.071219     3.254922    -3.423132
H      4.356253     4.442039    -3.188380
C      2.498590     5.299994    -3.983308
H      2.175337     4.879592    -4.943483
H      3.110626     6.185514    -4.186933
