32
Energy = -1142.566495830 Hartree (EUMP2 CORRECTED)
O      1.419477    -0.053003    -0.694471
C      0.457473    -0.009213    -1.779291
H      0.431110    -1.009155    -2.224826
H      0.784403     0.720761    -2.529073
C      0.924079     0.769843     0.386962
H      0.709909     0.121886     1.249246
H      1.689111     1.504021     0.660142
C     -0.849822     0.430280    -1.140588
H     -1.332911    -0.409475    -0.622451
H     -1.547132     0.886778    -1.848469
C     -0.337605     1.450481    -0.122015
H     -1.058387     1.685672     0.670920
O      0.071877     2.648997    -0.780293
P     -1.173174     3.689410    -1.277876
O     -2.127419     3.821180    -0.111165
O     -1.625962     3.290047    -2.663681
O     -0.234998     5.058874    -1.435336
C      1.078120     5.215403    -0.902464
H      1.306023     4.461531    -0.142841
H      1.132836     6.212740    -0.448566
C      2.071419     5.131617    -2.048917
H      1.745736     5.817178    -2.845091
O      3.367450     5.589804    -1.558629
C      4.393473     4.682160    -2.002704
H      5.255811     5.279833    -2.319937
H      4.699258     4.040592    -1.163047
C      3.759957     3.856005    -3.116134
H      4.255245     2.888912    -3.259647
H      3.792611     4.406317    -4.065144
C      2.324460     3.735543    -2.607184
H      2.252744     2.992335    -1.806321
H      1.591486     3.465552    -3.373489
