32
Energy = -1142.574645131 Hartree (EUMP2 CORRECTED)
O      2.328966     0.714523     0.056857
C      2.318672     1.971385    -0.656477
H      3.190280     1.966157    -1.318299
H      2.398264     2.805782     0.052276
C      0.959306     0.383357     0.386118
H      0.763548    -0.627445     0.005373
H      0.821280     0.404900     1.471910
C      0.978644     1.993159    -1.369548
H      1.000028     1.311333    -2.231036
H      0.631903     2.978361    -1.688881
C      0.064289     1.430293    -0.281223
H     -0.861650     0.990680    -0.675635
O     -0.236338     2.420986     0.705281
P     -1.496451     3.477326     0.381778
O     -1.500841     3.826359    -1.094386
O     -1.489340     4.486766     1.497063
O     -2.776053     2.418038     0.662588
C     -3.694963     2.097758    -0.383312
H     -3.821424     1.006086    -0.389860
H     -3.296957     2.431984    -1.350559
C     -5.048552     2.744497    -0.139546
H     -5.689259     2.529884    -1.007004
O     -5.730189     2.172554     0.993183
C     -5.271164     2.876842     2.171049
H     -6.110240     2.866641     2.875763
H     -4.419692     2.342428     2.604074
C     -4.859527     4.288508     1.715993
H     -3.833433     4.511329     2.018839
H     -5.526017     5.052958     2.132685
C     -4.965818     4.239741     0.178298
H     -4.113504     4.719441    -0.313399
H     -5.886088     4.727582    -0.165102
