32
Energy = -1142.571803414 Hartree (EUMP2 CORRECTED)
O      1.203240     0.095310     0.849258
C      1.943979     1.107960     0.134797
H      2.890124     0.652749    -0.174983
H      2.144186     1.962720     0.794624
C     -0.209517     0.360274     0.658233
H     -0.662614    -0.549104     0.242309
H     -0.675257     0.602823     1.617935
C      1.029620     1.511325    -1.009132
H      1.026335     0.727155    -1.779296
H      1.275644     2.460781    -1.484370
C     -0.322373     1.547742    -0.301827
H     -1.178065     1.438866    -0.978692
O     -0.456953     2.737901     0.481537
P     -1.471963     3.941839    -0.119809
O     -1.050890     5.227952     0.542570
O     -2.874847     3.387923    -0.172820
O     -0.974889     3.959601    -1.735940
C      0.091844     4.845746    -2.073531
H      1.013423     4.584996    -1.535293
H     -0.171387     5.877857    -1.801240
C      0.321858     4.739666    -3.568905
H      1.096752     5.462520    -3.859623
O      0.853219     3.437356    -3.917418
C     -0.248813     2.648447    -4.395165
H      0.179070     1.816746    -4.964111
H     -0.833085     2.268077    -3.548550
C     -1.063120     3.629001    -5.230687
H     -2.094222     3.296451    -5.394192
H     -0.580499     3.768090    -6.205646
C     -0.978618     4.910139    -4.386735
H     -1.831062     4.975559    -3.704890
H     -0.952151     5.814799    -5.004197
