32
Energy = -1142.564402824 Hartree (EUMP2 CORRECTED)
O      1.890661    -0.235432     0.284392
C      2.544420     1.034971     0.147433
H      3.594078     0.834095    -0.087834
H      2.473387     1.610058     1.081929
C      0.463775     0.025448     0.162721
H      0.044607    -0.779693    -0.449566
H     -0.009021     0.009206     1.144279
C      1.755045     1.711162    -0.962173
H      1.984198     1.226652    -1.920369
H      1.906296     2.791276    -1.045608
C      0.322254     1.399395    -0.530222
H     -0.369127     1.328408    -1.381752
O     -0.112970     2.483646     0.290906
P     -1.122594     2.354093     1.633939
O     -0.294311     2.703204     2.851018
O     -1.980552     1.118288     1.516590
O     -2.115231     3.643344     1.266092
C     -1.594291     4.967558     1.403346
H     -1.549978     5.426361     0.406721
H     -0.588170     4.944812     1.843301
C     -2.511481     5.775734     2.304788
H     -2.093456     6.787085     2.411146
O     -3.813599     5.957229     1.703240
C     -4.651912     4.897906     2.202912
H     -5.687119     5.218278     2.044759
H     -4.452925     3.972948     1.652307
C     -4.260021     4.766362     3.672920
H     -4.471814     3.768012     4.070148
H     -4.811290     5.502460     4.270557
C     -2.752996     5.085951     3.664825
H     -2.143282     4.181020     3.739601
H     -2.478432     5.748354     4.493453
