32
Energy = -1142.561578605 Hartree (EUMP2 CORRECTED)
O      1.710677     0.458484     0.866483
C      1.869691     1.330257    -0.277524
H      2.778527     1.009134    -0.795677
H      1.970434     2.372918     0.046015
C      0.297564     0.355881     1.149617
H      0.033071    -0.710472     1.149514
H      0.078994     0.793756     2.128952
C      0.589642     1.146132    -1.074450
H      0.598120     0.175161    -1.590344
H      0.399250     1.946379    -1.793614
C     -0.445522     1.124912     0.054104
H     -1.379193     0.618150    -0.217035
O     -0.709160     2.422962     0.571144
P     -1.243455     3.748866    -0.332227
O     -0.041209     4.557321    -0.749453
O     -2.441723     4.292247     0.405618
O     -1.764724     3.045236    -1.774458
C     -2.807017     2.072030    -1.806500
H     -3.313475     1.991797    -0.835331
H     -2.365884     1.099599    -2.077166
C     -3.834285     2.439398    -2.874439
H     -4.393331     1.532060    -3.142835
O     -4.819431     3.371426    -2.413668
C     -4.224925     4.689547    -2.510773
H     -5.056958     5.383448    -2.669346
H     -3.719105     4.924567    -1.569703
C     -3.240193     4.627815    -3.696990
H     -2.250185     4.968274    -3.385805
H     -3.578796     5.247357    -4.535776
C     -3.203887     3.135185    -4.085957
H     -2.186129     2.785248    -4.285164
H     -3.824707     2.945033    -4.969674
