32
Energy = -1142.571507240 Hartree (EUMP2 CORRECTED)
O      0.939683    -0.394475    -0.277383
C      1.528930     0.513260    -1.231940
H      2.061639    -0.099688    -1.966043
H      2.235843     1.185407    -0.728118
C     -0.260487     0.227993     0.249493
H     -1.090789    -0.472662     0.094358
H     -0.138490     0.425490     1.318685
C      0.349658     1.295303    -1.788429
H     -0.216334     0.672733    -2.494334
H      0.619387     2.243302    -2.261885
C     -0.458936     1.537531    -0.515572
H     -1.518898     1.747138    -0.690083
O      0.157525     2.609078     0.201376
P     -0.843717     3.876967     0.698856
O     -2.166072     3.251599     1.110216
O     -0.732128     5.037442    -0.253224
O      0.027826     4.279557     2.056375
C      0.051301     3.352906     3.143985
H      1.082375     2.998292     3.270138
H     -0.607516     2.497451     2.942113
C     -0.417587     4.047645     4.411182
H     -0.401279     3.317450     5.232850
O      0.497228     5.094235     4.806767
C     -0.003207     6.318483     4.235370
H      0.459721     7.136632     4.796920
H      0.275913     6.379013     3.178570
C     -1.517322     6.224307     4.407450
H     -2.056700     6.832635     3.673614
H     -1.796787     6.563056     5.412395
C     -1.797977     4.718764     4.239522
H     -2.209708     4.486028     3.253381
H     -2.504245     4.356679     4.995213
