32
Energy = -1142.562767406 Hartree (EUMP2 CORRECTED)
O      0.763022    -0.534625     0.673046
C      1.959295     0.246042     0.510463
H      2.799025    -0.455800     0.485476
H      2.082360     0.941419     1.351919
C     -0.339405     0.234680     0.121634
H     -0.895467    -0.431374    -0.548452
H     -0.996221     0.588747     0.920639
C      1.730349     1.011332    -0.784897
H      1.840384     0.334024    -1.642444
H      2.384849     1.878763    -0.910448
C      0.272370     1.434072    -0.616855
H     -0.257588     1.612079    -1.554711
O      0.249288     2.586502     0.228137
P     -0.914543     3.780157    -0.043096
O     -0.787400     4.778618     1.070005
O     -2.176672     3.044378    -0.445161
O     -0.335802     4.568560    -1.417321
C      0.165949     3.928345    -2.572208
H     -0.604171     3.299618    -3.043279
H      1.045113     3.309268    -2.331890
C      0.604554     5.008018    -3.549522
H      1.076618     4.522672    -4.415421
O     -0.525751     5.732016    -4.076336
C     -0.674888     6.913690    -3.266977
H     -1.291934     7.611412    -3.841581
H     -1.166072     6.659829    -2.322037
C      0.758365     7.385132    -3.042605
H      0.856210     8.033883    -2.165489
H      1.107996     7.934111    -3.925213
C      1.523830     6.059790    -2.884956
H      1.658041     5.816161    -1.827531
H      2.507750     6.094460    -3.366178
