32
Energy = -1142.567800148 Hartree (EUMP2 CORRECTED)
O      1.032270    -0.343748    -0.405965
C      0.163814     0.016640    -1.505556
H     -0.047297    -0.904597    -2.058006
H      0.670616     0.733864    -2.163550
C      0.745975     0.544631     0.700932
H      0.444698    -0.072599     1.558143
H      1.643224     1.118502     0.953938
C     -1.048440     0.656517    -0.851962
H     -1.694800    -0.113116    -0.408247
H     -1.627554     1.294123    -1.525387
C     -0.375737     1.475842     0.252628
H     -1.055315     1.751836     1.068927
O      0.238225     2.650465    -0.279951
P     -0.810557     3.922456    -0.678398
O     -1.718039     4.187734     0.495046
O     -1.327504     3.669189    -2.082785
O      0.357556     5.102415    -0.709146
C      1.449804     4.982040    -1.627357
H      2.205936     5.685956    -1.265763
H      1.866865     3.967356    -1.591580
C      1.093912     5.380371    -3.060299
H      0.209288     6.031957    -3.031264
O      2.230197     6.141480    -3.580537
C      2.378243     5.883512    -4.989158
H      2.392016     6.842558    -5.522087
H      3.344013     5.383368    -5.149036
C      1.208629     4.981973    -5.388577
H      1.462275     4.308164    -6.215312
H      0.343834     5.583454    -5.694203
C      0.906438     4.263576    -4.075746
H      1.649818     3.475669    -3.888780
H     -0.091032     3.827443    -3.996434
