32
Energy = -1142.573400664 Hartree (EUMP2 CORRECTED)
O      1.032288    -0.186448     0.086324
C      1.852343     0.966484    -0.212940
H      2.754441     0.591222    -0.706040
H      2.126473     1.482790     0.716090
C     -0.348343     0.247891     0.100992
H     -0.907109    -0.407413    -0.580153
H     -0.753516     0.162464     1.115104
C      0.969691     1.846592    -1.079853
H      0.899980     1.428957    -2.093779
H      1.260552     2.898734    -1.131895
C     -0.370097     1.707745    -0.356765
H     -1.230685     1.933819    -0.998024
O     -0.394822     2.529228     0.814516
P     -0.962039     4.110941     0.620746
O     -0.266977     4.734144    -0.565126
O     -1.041645     4.683223     2.010234
O     -2.511391     3.746914     0.066036
C     -3.444033     3.280033     1.041437
H     -3.573990     4.028408     1.831160
H     -3.080039     2.345919     1.502666
C     -4.764032     3.012603     0.341392
H     -5.464010     2.584378     1.071970
O     -5.377945     4.238153    -0.112375
C     -4.985312     4.413879    -1.485023
H     -5.682542     5.135762    -1.921594
H     -3.960192     4.795718    -1.534845
C     -5.089659     3.010571    -2.075941
H     -4.485632     2.887464    -2.981759
H     -6.135289     2.791663    -2.322890
C     -4.607333     2.122727    -0.914930
H     -3.557464     1.848378    -1.045782
H     -5.196261     1.202528    -0.830806
