32
Energy = -1142.567785747 Hartree (EUMP2 CORRECTED)
O      1.312794     0.252123     1.038576
C      1.913813     1.414491     0.429500
H      2.955258     1.156576     0.213599
H      1.879400     2.265406     1.122843
C     -0.107498     0.297144     0.757059
H     -0.386860    -0.676007     0.334145
H     -0.667363     0.476457     1.680366
C      1.056909     1.683769    -0.795393
H      1.280135     0.949455    -1.581713
H      1.154413     2.688445    -1.209451
C     -0.343457     1.446229    -0.229953
H     -1.083062     1.179005    -0.994759
O     -0.785031     2.577375     0.520122
P     -1.717411     3.753138    -0.244190
O     -1.307191     5.092742     0.314011
O     -3.138284     3.246763    -0.321580
O     -1.093220     3.588535    -1.807976
C     -0.472109     4.718280    -2.412161
H      0.563463     4.829113    -2.058988
H     -1.011480     5.642746    -2.164520
C     -0.481076     4.490201    -3.911217
H     -0.028271     5.360811    -4.406401
O      0.357189     3.360183    -4.260673
C     -0.513966     2.238882    -4.479700
H      0.049805     1.509746    -5.070693
H     -0.808797     1.799679    -3.519043
C     -1.713687     2.841279    -5.200587
H     -2.604794     2.205570    -5.152206
H     -1.460564     3.011674    -6.254201
C     -1.891797     4.170935    -4.453324
H     -2.583760     4.047074    -3.614858
H     -2.265911     4.969470    -5.103514
