32
Energy = -1142.568996734 Hartree (EUMP2 CORRECTED)
O      1.555921    -0.400268     0.545392
C      2.388391     0.675753     0.093913
H      3.356184     0.244542    -0.179657
H      2.525210     1.419215     0.893278
C      0.200615     0.126403     0.541056
H     -0.462544    -0.694649     0.257396
H     -0.055228     0.478227     1.544246
C      1.595780     1.265243    -1.063051
H      1.650996     0.586583    -1.923507
H      1.900659     2.271234    -1.366849
C      0.181108     1.285993    -0.483844
H     -0.594721     1.118008    -1.241702
O     -0.027175     2.583374     0.083632
P     -1.239065     2.758390     1.245419
O     -0.595515     2.695901     2.616350
O     -2.413074     1.901610     0.839592
O     -1.614172     4.341399     0.903917
C     -0.699454     5.364764     1.305311
H     -0.329571     5.863223     0.399924
H      0.144812     4.935470     1.860965
C     -1.419351     6.369674     2.188518
H     -0.704018     7.153663     2.476176
O     -2.466213     7.049265     1.457351
C     -3.691941     6.347987     1.740907
H     -4.509034     7.031480     1.487507
H     -3.753444     5.440817     1.130547
C     -3.594716     6.014764     3.226288
H     -4.231698     5.169533     3.508616
H     -3.891507     6.888482     3.819318
C     -2.097432     5.709454     3.409424
H     -1.897418     4.634233     3.412403
H     -1.710714     6.125966     4.346356
