32
Energy = -1142.559474910 Hartree (EUMP2 CORRECTED)
O      1.544399     0.704454     1.136865
C      1.875233     0.792783    -0.261144
H      2.499998    -0.074876    -0.494044
H      2.446231     1.711459    -0.457799
C      0.338767     1.481740     1.336413
H     -0.310567     0.895269     1.995683
H      0.580539     2.440066     1.810151
C      0.526171     0.817262    -0.960887
H      0.092545    -0.191166    -0.959658
H      0.535077     1.194950    -1.986874
C     -0.285629     1.735326    -0.043292
H     -1.354407     1.505767    -0.079281
O     -0.084999     3.119276    -0.357397
P     -1.053680     3.779762    -1.586201
O     -1.504084     5.127435    -1.072464
O     -1.987358     2.704213    -2.086594
O      0.107035     4.043198    -2.774182
C      1.505367     4.030284    -2.528712
H      1.763576     3.427056    -1.652603
H      1.948475     3.566698    -3.421420
C      2.090790     5.441926    -2.359061
H      3.130312     5.399509    -2.724609
O      1.437416     6.436729    -3.151180
C      0.653346     7.249917    -2.249438
H      0.476548     8.199257    -2.765270
H     -0.292712     6.749395    -2.015586
C      1.534559     7.363927    -1.009121
H      0.972963     7.678093    -0.122399
H      2.346686     8.080411    -1.189052
C      2.074264     5.931191    -0.893158
H      1.384272     5.321506    -0.299565
H      3.068464     5.874995    -0.435742
