32
Energy = -1142.564775817 Hartree (EUMP2 CORRECTED)
O      1.540441     0.200642     0.643339
C      2.030591     1.264154    -0.198958
H      2.920616     0.880168    -0.707467
H      2.299172     2.137724     0.409639
C      0.113661     0.399243     0.817835
H     -0.378468    -0.549155     0.568016
H     -0.101996     0.675019     1.854877
C      0.860363     1.587804    -1.114505
H      0.754656     0.806852    -1.879577
H      0.917307     2.572168    -1.588511
C     -0.303262     1.534331    -0.122691
H     -1.268616     1.330411    -0.593326
O     -0.341945     2.749970     0.617156
P     -1.591125     3.879610     0.515039
O     -1.176410     4.965263    -0.454797
O     -2.076854     4.121000     1.918139
O     -2.762184     2.940282    -0.258512
C     -2.926910     3.087359    -1.666244
H     -2.003423     2.835516    -2.205916
H     -3.189686     4.124123    -1.918780
C     -4.030858     2.134190    -2.080147
H     -4.203228     2.233286    -3.161210
O     -3.609930     0.761617    -1.871070
C     -4.243830     0.299541    -0.666205
H     -4.230881    -0.794490    -0.700764
H     -3.690172     0.657798     0.210543
C     -5.635604     0.915598    -0.725995
H     -6.138369     0.932263     0.247390
H     -6.256809     0.352309    -1.433001
C     -5.326815     2.320657    -1.261204
H     -5.136077     3.008787    -0.432554
H     -6.139135     2.725501    -1.874957
