32
Energy = -1142.541931027 Hartree (EUMP2 CORRECTED)
O      2.155150     0.467192     0.577701
C      2.322731     1.637833    -0.242170
H      3.290877     1.540515    -0.741642
H      2.311403     2.546350     0.375435
C      0.741528     0.371546     0.861229
H      0.477827    -0.690549     0.810926
H      0.522075     0.766520     1.859390
C      1.116865     1.606977    -1.167513
H      1.254806     0.827232    -1.929176
H      0.908875     2.568231    -1.646164
C     -0.001175     1.229806    -0.183834
H     -0.816189     0.660059    -0.641972
O     -0.484398     2.380882     0.475715
P     -1.765708     3.422036     0.105949
O     -1.124449     4.741032    -0.264832
O     -2.802732     3.257194     1.183920
O     -2.472641     2.844473    -1.311878
C     -2.138568     1.941368    -2.339336
H     -2.515398     0.933429    -2.110329
H     -1.055317     1.888991    -2.519072
C     -2.789939     2.444816    -3.620002
H     -2.490655     1.787237    -4.449389
O     -4.227301     2.350771    -3.543949
C     -4.710882     3.650375    -3.149701
H     -5.770468     3.685156    -3.422027
H     -4.590950     3.780415    -2.069186
C     -3.831527     4.619740    -3.931872
H     -3.811139     5.621750    -3.490370
H     -4.195872     4.696655    -4.963671
C     -2.457227     3.931022    -3.883920
H     -1.860155     4.330973    -3.058246
H     -1.900196     4.057915    -4.819206
