32
Energy = -1142.575853281 Hartree (EUMP2 CORRECTED)
O      0.267450    -0.055494     1.408919
C      1.303729     0.890741     1.070243
H      2.256089     0.433088     1.355697
H      1.160314     1.824108     1.630828
C     -0.846313     0.172448     0.510836
H     -1.100042    -0.792076     0.053411
H     -1.704768     0.556241     1.071572
C      1.130446     1.126225    -0.420274
H      1.503952     0.259889    -0.983207
H      1.594058     2.042435    -0.793706
C     -0.394534     1.200446    -0.527831
H     -0.773772     0.987124    -1.533496
O     -0.875425     2.481021    -0.100751
P     -0.993646     3.695927    -1.248316
O     -1.702959     4.857014    -0.599988
O     -1.396368     3.056123    -2.559969
O      0.643276     4.078155    -1.406427
C      1.103266     5.398781    -1.113379
H      1.986892     5.306734    -0.466725
H      0.321170     5.960438    -0.586331
C      1.501301     6.130065    -2.383704
H      1.783056     7.157090    -2.110177
O      2.676034     5.559762    -2.994306
C      2.237209     4.492844    -3.865961
H      2.956643     4.460825    -4.692134
H      2.264280     3.543873    -3.320013
C      0.801999     4.832399    -4.305649
H      0.116810     4.014522    -4.069553
H      0.752124     5.039137    -5.381367
C      0.436823     6.083745    -3.482663
H     -0.576999     6.027673    -3.073513
H      0.516144     6.990836    -4.093938
