32
Energy = -1142.574890842 Hartree (EUMP2 CORRECTED)
O      0.262601    -0.011908     1.430162
C      1.321568     0.716169     0.767765
H      2.233698     0.121859     0.881744
H      1.458402     1.696267     1.242534
C     -0.979479     0.291107     0.749307
H     -1.423139    -0.660654     0.428235
H     -1.660061     0.806186     1.434825
C      0.841787     0.876988    -0.664050
H      0.945045    -0.070600    -1.210205
H      1.342419     1.677450    -1.213896
C     -0.639232     1.187375    -0.439029
H     -1.254939     0.990955    -1.323063
O     -0.825329     2.541257    -0.010350
P     -0.725311     3.743953    -1.177932
O     -1.481144     4.937474    -0.647893
O     -0.940253     3.106806    -2.531859
O      0.920937     4.076020    -1.089360
C      1.399181     5.258548    -0.451368
H      2.195451     4.960497     0.243826
H      0.589743     5.752932     0.101596
C      1.973177     6.206872    -1.492344
H      2.397023     7.079547    -0.973953
O      3.080917     5.589414    -2.188622
C      2.551534     5.051692    -3.416761
H      3.406200     4.896248    -4.083462
H      2.040366     4.103115    -3.221949
C      1.570482     6.115877    -3.894599
H      0.820918     5.714442    -4.584589
H      2.117250     6.923769    -4.396468
C      0.949021     6.608733    -2.577111
H     -0.015331     6.131775    -2.386248
H      0.786487     7.692524    -2.581839
