32
Energy = -1142.573602627 Hartree (EUMP2 CORRECTED)
O      0.827534    -0.113665     1.313902
C      1.680597     0.541842     0.351162
H      2.534276    -0.121912     0.181742
H      2.034232     1.501160     0.752076
C     -0.533184     0.330515     1.076616
H     -1.153058    -0.566658     0.953858
H     -0.887367     0.915800     1.930974
C      0.789427     0.759440    -0.860929
H      0.649136    -0.185744    -1.402309
H      1.140636     1.531304    -1.552021
C     -0.512314     1.191471    -0.184835
H     -1.392593     1.052040    -0.819822
O     -0.412418     2.560582     0.214032
P     -1.108041     3.734908    -0.777261
O     -1.675626     4.785553     0.148040
O     -1.861761     3.056212    -1.893966
O      0.292273     4.353670    -1.463104
C      1.196767     5.059136    -0.610644
H      2.133905     4.488704    -0.553985
H      0.777080     5.171524     0.398131
C      1.469820     6.434233    -1.195071
H      2.181327     6.957543    -0.540039
O      2.128855     6.329166    -2.479264
C      1.102221     6.438643    -3.482956
H      1.605743     6.702725    -4.418779
H      0.580366     5.481468    -3.589218
C      0.173215     7.521714    -2.945105
H     -0.831085     7.468903    -3.379544
H      0.596278     8.509985    -3.163508
C      0.176040     7.244191    -1.432096
H     -0.692831     6.655092    -1.124778
H      0.178348     8.171335    -0.847888
