32
Energy = -1142.569954202 Hartree (EUMP2 CORRECTED)
O      1.015276     0.067846     0.940342
C      2.117714     0.981346     0.817920
H      3.030924     0.406134     1.000945
H      2.033804     1.788914     1.558255
C     -0.090161     0.613033     0.170221
H     -0.486521    -0.199538    -0.448843
H     -0.871906     0.978881     0.842194
C      1.980512     1.531074    -0.593971
H      2.285988     0.767302    -1.321029
H      2.536824     2.456211    -0.775025
C      0.473775     1.767877    -0.670414
H      0.063824     1.759145    -1.685461
O      0.226116     3.029929    -0.048524
P     -1.301144     3.740537    -0.263273
O     -1.834781     4.147779     1.081616
O     -2.029753     2.866915    -1.263871
O     -0.802409     5.157492    -1.001813
C      0.169017     5.131370    -2.040814
H     -0.317624     5.406470    -2.986429
H      0.615776     4.133637    -2.151286
C      1.265677     6.134982    -1.721221
H      2.006489     6.112290    -2.534139
O      0.738767     7.481548    -1.710644
C      0.487557     7.818219    -0.332758
H      0.413387     8.909378    -0.285306
H     -0.448147     7.356540     0.000965
C      1.686621     7.237207     0.406705
H      1.497035     7.095701     1.476274
H      2.550311     7.902951     0.286860
C      1.906187     5.907842    -0.332876
H      1.402817     5.084530     0.179429
H      2.969739     5.656077    -0.421948
