32
Energy = -1142.565296156 Hartree (EUMP2 CORRECTED)
O      0.122350    -0.148116     0.079956
C      1.197297     0.583176    -0.552825
H      1.761497    -0.139225    -1.150898
H      1.850640     1.024741     0.210159
C     -0.989166     0.762212     0.263868
H     -1.865248     0.321296    -0.230290
H     -1.192244     0.879527     1.333369
C      0.496650     1.667019    -1.354366
H      0.047822     1.240253    -2.261415
H      1.130137     2.516760    -1.622037
C     -0.591053     2.095043    -0.369114
H     -1.417592     2.615858    -0.861410
O     -0.003305     2.925747     0.635731
P     -0.241771     4.600650     0.543016
O     -0.976566     4.895752    -0.747508
O      1.057475     5.236690     0.957735
O     -1.372662     4.813621     1.769748
C     -1.675742     3.857908     2.774249
H     -1.395545     4.272601     3.752499
H     -1.121653     2.924640     2.612312
C     -3.170417     3.576577     2.765183
H     -3.387318     2.801213     3.515127
O     -3.912609     4.747763     3.184832
C     -4.446964     5.356699     1.996151
H     -5.264401     6.010732     2.316016
H     -3.668354     5.939559     1.489524
C     -4.881498     4.168179     1.149201
H     -5.026710     4.423206     0.093648
H     -5.815829     3.752873     1.547290
C     -3.706221     3.205877     1.365530
H     -2.937851     3.403721     0.614648
H     -4.001608     2.151980     1.306232
