32
Energy = -1142.564432483 Hartree (EUMP2 CORRECTED)
O      2.375450     0.927552    -0.554116
C      1.939655     2.153295    -1.181881
H      2.555836     2.286544    -2.076162
H      2.085470     3.002399    -0.501844
C      1.259508     0.412470     0.205812
H      1.136576    -0.643065    -0.068715
H      1.461103     0.498272     1.278867
C      0.462211     1.935320    -1.454899
H      0.335727     1.242892    -2.299067
H     -0.098074     2.859698    -1.620287
C      0.026489     1.252543    -0.155097
H     -0.855823     0.614672    -0.274296
O     -0.165322     2.174039     0.916186
P     -1.326516     3.394493     0.996496
O     -1.218392     4.211414    -0.281163
O     -1.247655     3.948035     2.387247
O     -2.795966     2.582247     0.894437
C     -3.141142     1.782974    -0.229132
H     -3.095497     0.721193     0.049068
H     -2.471696     1.976344    -1.080143
C     -4.555209     2.139153    -0.660804
H     -4.818425     1.533633    -1.540149
O     -5.517308     1.786244     0.356636
C     -5.744241     2.972976     1.142738
H     -6.692916     2.822518     1.668100
H     -4.928664     3.105586     1.861018
C     -5.771901     4.100146     0.114851
H     -5.541619     5.075279     0.557240
H     -6.764990     4.152815    -0.347795
C     -4.712489     3.655874    -0.909659
H     -3.755992     4.161372    -0.744100
H     -5.034008     3.856555    -1.937963
