32
Energy = -1142.571011595 Hartree (EUMP2 CORRECTED)
O      1.401447    -0.009801     0.233217
C      1.889562     1.215071    -0.359804
H      2.780377     0.951817    -0.938459
H      2.157999     1.932969     0.425891
C     -0.025046     0.135559     0.426109
H     -0.509025    -0.733746    -0.037977
H     -0.256518     0.163404     1.496249
C      0.723757     1.731310    -1.184011
H      0.618766     1.135578    -2.101510
H      0.769202     2.796973    -1.425524
C     -0.444765     1.449782    -0.236096
H     -1.409626     1.371192    -0.751190
O     -0.526072     2.438066     0.794422
P     -1.257699     3.919045     0.445715
O     -0.435755     4.620541    -0.611257
O     -1.675321     4.510335     1.765564
O     -2.613506     3.341141    -0.373800
C     -3.878098     3.352390     0.285506
H     -4.053912     4.316055     0.775404
H     -3.917495     2.562804     1.054727
C     -4.944151     3.088172    -0.762390
H     -5.903175     2.926129    -0.251755
O     -5.154694     4.213063    -1.632003
C     -4.161547     4.141301    -2.680218
H     -4.621045     4.596876    -3.563991
H     -3.274199     4.708657    -2.385750
C     -3.824726     2.647784    -2.861875
H     -2.747287     2.495713    -2.767603
H     -4.148472     2.275943    -3.841149
C     -4.581410     1.944854    -1.717096
H     -3.976060     1.176304    -1.225058
H     -5.501297     1.477610    -2.088499
