32
Energy = -1142.563538215 Hartree (EUMP2 CORRECTED)
O      1.076000     0.193415     0.545154
C      1.787133     1.407258     0.207909
H      2.850790     1.151606     0.172596
H      1.615189     2.169874     0.978249
C     -0.239566     0.270831    -0.054305
H     -0.372821    -0.622822    -0.678126
H     -1.003544     0.293976     0.729640
C      1.194562     1.844144    -1.119811
H      1.568669     1.201035    -1.928747
H      1.373599     2.894203    -1.365050
C     -0.288738     1.553795    -0.882356
H     -0.861966     1.446695    -1.809841
O     -0.896694     2.561924    -0.059690
P     -1.381461     3.974655    -0.797665
O     -2.293502     4.714303     0.146490
O     -1.728640     3.690477    -2.248873
O      0.138504     4.710425    -0.790021
C      0.136717     6.105774    -1.042661
H     -0.777065     6.392239    -1.582038
H      0.138787     6.663635    -0.094837
C      1.379239     6.489247    -1.882648
H      2.182071     6.868873    -1.241404
O      1.946408     5.379390    -2.586230
C      1.047212     5.104334    -3.684715
H      1.661340     4.672988    -4.481702
H      0.281988     4.388715    -3.365200
C      0.412254     6.461885    -4.062654
H     -0.677553     6.399174    -3.986294
H      0.659987     6.768544    -5.084767
C      0.994791     7.437556    -3.021404
H      0.283294     8.214968    -2.716815
H      1.896676     7.927484    -3.406625
