32
Energy = -1142.562131677 Hartree (EUMP2 CORRECTED)
O      1.753712     0.266846    -0.064914
C      2.023803     1.448418    -0.851145
H      2.833109     1.190474    -1.541671
H      2.343258     2.270872    -0.197716
C      0.360803     0.310794     0.332162
H     -0.099515    -0.635563     0.020623
H      0.287744     0.420653     1.418945
C      0.698088     1.775003    -1.516055
H      0.504890     1.071270    -2.337225
H      0.611080     2.803006    -1.875377
C     -0.274952     1.513229    -0.365161
H     -1.301886     1.326484    -0.697346
O     -0.264989     2.603057     0.566729
P     -1.321561     3.867438     0.299723
O     -1.379666     4.694522     1.558575
O     -2.546939     3.357193    -0.430764
O     -0.342782     4.673084    -0.826578
C     -0.906518     5.879694    -1.338806
H     -1.686239     5.661936    -2.080794
H     -1.352686     6.452047    -0.513456
C      0.205591     6.687437    -1.988263
H      1.167245     6.218688    -1.721499
O      0.067416     6.683244    -3.425664
C      1.005690     7.656187    -3.891143
H      1.995723     7.188096    -4.005944
H      0.661941     7.993269    -4.873220
C      1.046875     8.774601    -2.820477
H      0.611848     9.709009    -3.189756
H      2.078654     8.987396    -2.519778
C      0.232985     8.178070    -1.658635
H     -0.795237     8.558445    -1.664563
H      0.663945     8.374583    -0.671509
