32
Energy = -1142.568330545 Hartree (EUMP2 CORRECTED)
O      1.228849    -0.306350     0.120585
C      1.834149     0.631711    -0.795408
H      2.544962     0.064699    -1.404744
H      2.366616     1.413784    -0.238262
C     -0.093369     0.187812     0.446350
H     -0.804442    -0.624724     0.250876
H     -0.134684     0.472890     1.502607
C      0.664130     1.221850    -1.563394
H      0.288899     0.494760    -2.296432
H      0.878403     2.174441    -2.053571
C     -0.356850     1.405776    -0.439447
H     -1.391576     1.465831    -0.793642
O     -0.049368     2.573424     0.335008
P     -0.714688     4.024970    -0.143978
O     -0.521492     5.010973     0.983612
O     -2.045043     3.776373    -0.821196
O      0.435809     4.362861    -1.337944
C      0.236554     5.590084    -2.044050
H     -0.691753     6.081195    -1.726197
H      0.139899     5.358901    -3.112336
C      1.396138     6.577061    -1.808933
H      2.123334     6.497135    -2.627040
O      0.890401     7.936351    -1.888012
C      0.763334     8.389506    -0.527704
H      0.675377     9.479599    -0.564465
H     -0.133273     7.958154    -0.059383
C      2.022191     7.860659     0.141725
H      1.958283     7.861628     1.235449
H      2.882740     8.468121    -0.166160
C      2.086657     6.439085    -0.436086
H      1.525570     5.752985     0.202031
H      3.110912     6.064945    -0.537031
