32
Energy = -1142.570890379 Hartree (EUMP2 CORRECTED)
O      0.484120    -0.583786     0.363321
C      1.788459     0.010993     0.456056
H      2.514326    -0.808335     0.457420
H      1.883599     0.592183     1.383777
C     -0.411126     0.425854    -0.177386
H     -1.010887    -0.057659    -0.955868
H     -1.068966     0.808240     0.607737
C      1.856885     0.924021    -0.758840
H      1.982911     0.320524    -1.667248
H      2.640369     1.686326    -0.708963
C      0.468456     1.560126    -0.727800
H      0.110688     1.896345    -1.705747
O      0.534824     2.654155     0.190848
P     -0.714565     3.795819     0.157084
O     -0.950268     4.273144     1.561309
O     -1.769732     3.247413    -0.781991
O      0.093619     5.050952    -0.610349
C      0.613016     4.824695    -1.913936
H     -0.193106     4.564518    -2.613656
H      1.351217     4.005643    -1.892778
C      1.314494     6.091918    -2.370145
H      1.849553     5.875911    -3.305026
O      0.397318     7.152152    -2.687564
C      0.080526     7.834622    -1.453186
H     -0.105118     8.879908    -1.723273
H     -0.823150     7.398406    -1.017828
C      1.290347     7.643382    -0.517555
H      0.969977     7.184694     0.419894
H      1.786194     8.595912    -0.296823
C      2.222500     6.690849    -1.291444
H      2.654171     5.920521    -0.644636
H      3.036681     7.246106    -1.772653
