32
Energy = -1142.568319280 Hartree (EUMP2 CORRECTED)
O      0.578913    -0.347369     0.531608
C      1.398247     0.229159    -0.512711
H      1.938964    -0.597518    -0.984262
H      2.115350     0.935301    -0.075086
C     -0.619128     0.455233     0.656850
H     -1.483268    -0.201206     0.487725
H     -0.672006     0.884487     1.662430
C      0.419855     0.948985    -1.424059
H     -0.116472     0.225563    -2.053632
H      0.856292     1.733501    -2.047263
C     -0.532469     1.557610    -0.395447
H     -1.516986     1.816559    -0.806755
O      0.065432     2.699011     0.224203
P     -0.186252     4.174770    -0.572122
O     -1.552104     4.681408    -0.152045
O      0.227535     4.048154    -2.018192
O      0.992386     5.033998     0.229319
C      1.382740     4.743480     1.571790
H      2.438376     4.442250     1.559836
H      0.787420     3.924701     1.993976
C      1.214272     5.987681     2.426909
H      1.532875     5.749450     3.452735
O      2.098334     7.043463     1.979670
C      1.306577     7.941025     1.180953
H      1.855164     8.887402     1.133484
H      1.175824     7.529122     0.173665
C     -0.020498     8.018374     1.925057
H     -0.841763     8.377477     1.295146
H      0.081694     8.688882     2.787603
C     -0.218810     6.561910     2.371794
H     -0.820764     6.013695     1.639228
H     -0.712590     6.492129     3.347931
