32
Energy = -1142.568318587 Hartree (EUMP2 CORRECTED)
O      0.733216    -0.411074     0.307674
C      1.792668     0.442492    -0.169523
H      2.567719    -0.213153    -0.578212
H      2.206999     1.034047     0.658010
C     -0.489215     0.365774     0.288769
H     -1.251515    -0.242767    -0.212193
H     -0.806375     0.593099     1.311840
C      1.116599     1.346322    -1.186903
H      0.918751     0.788879    -2.112640
H      1.666597     2.263729    -1.410636
C     -0.194641     1.667563    -0.464138
H     -1.014532     1.954767    -1.132986
O      0.022396     2.698642     0.504833
P     -0.362972     4.265192     0.054813
O     -0.073062     5.126854     1.252917
O     -1.674989     4.255445    -0.704725
O      0.868520     4.523701    -1.072979
C      0.564525     4.826292    -2.434904
H     -0.508795     4.713301    -2.622755
H      1.107880     4.093075    -3.050485
C      1.006114     6.250170    -2.842800
H      1.614357     6.202679    -3.754049
O     -0.129705     7.065918    -3.198983
C     -0.704391     7.479645    -1.936152
H     -1.271280     8.392589    -2.142200
H     -1.386380     6.702326    -1.570962
C      0.481465     7.676511    -0.971825
H      0.302299     7.163127    -0.023184
H      0.660220     8.738786    -0.769598
C      1.674798     7.047700    -1.720991
H      2.285605     6.419018    -1.068922
H      2.303831     7.822649    -2.175364
