32
Energy = -1142.567162010 Hartree (EUMP2 CORRECTED)
O      1.282787     0.020048     0.672226
C      1.804135     0.946979    -0.304340
H      2.625368     0.439709    -0.820512
H      2.181755     1.847853     0.196725
C     -0.123751     0.308499     0.847164
H     -0.679853    -0.617428     0.647715
H     -0.308871     0.638775     1.873919
C      0.613023     1.277149    -1.184379
H      0.387976     0.426172    -1.843342
H      0.729624     2.168724    -1.797639
C     -0.497428     1.420601    -0.139901
H     -1.506088     1.286064    -0.554630
O     -0.410196     2.651190     0.574077
P     -1.092663     4.070767    -0.028482
O     -0.166135     5.199426     0.348706
O     -2.573699     4.025723     0.261331
O     -0.962629     3.789309    -1.689075
C     -0.050565     4.588816    -2.437342
H      0.990194     4.292594    -2.242100
H     -0.150589     5.648746    -2.166728
C     -0.376547     4.382936    -3.903855
H      0.292479     5.010460    -4.509236
O     -0.097481     3.016154    -4.299097
C     -1.353123     2.317183    -4.319141
H     -1.209209     1.424408    -4.936356
H     -1.639558     2.030878    -3.299853
C     -2.328682     3.333566    -4.899732
H     -3.375442     3.092169    -4.684072
H     -2.197542     3.388027    -5.987349
C     -1.867326     4.632520    -4.222557
H     -2.416334     4.791396    -3.289795
H     -2.002569     5.509846    -4.864730
