32
Energy = -1142.571873712 Hartree (EUMP2 CORRECTED)
O      0.460243    -0.086100     0.659655
C      1.517589     0.759332     0.149458
H      2.326684     0.094786    -0.169525
H      1.876694     1.429739     0.940013
C     -0.800049     0.585374     0.421393
H     -1.433194    -0.092820    -0.166474
H     -1.284514     0.806411     1.378183
C      0.864876     1.551282    -0.970028
H      0.730698     0.919531    -1.858669
H      1.395880     2.464052    -1.251174
C     -0.490861     1.872954    -0.340105
H     -1.252950     2.134660    -1.082657
O     -0.354483     2.918254     0.623172
P     -0.296627     4.517307     0.046392
O     -0.648388     4.493064    -1.420690
O      0.942059     5.142107     0.640322
O     -1.641858     5.094473     0.852090
C     -1.517808     5.344447     2.254438
H     -1.336707     6.414512     2.416544
H     -0.676438     4.782237     2.682271
C     -2.809239     4.924155     2.933029
H     -2.710157     5.097977     4.013941
O     -3.917928     5.751354     2.507200
C     -4.606734     5.025903     1.473858
H     -5.604487     5.468594     1.389639
H     -4.067180     5.122768     0.525016
C     -4.600469     3.585606     1.974518
H     -4.769397     2.856174     1.174155
H     -5.383031     3.457955     2.732520
C     -3.202091     3.466717     2.601315
H     -2.484076     3.052135     1.888846
H     -3.202697     2.837968     3.498915
