32
Energy = -1142.572298820 Hartree (EUMP2 CORRECTED)
O      1.244378    -0.121858    -0.570896
C      1.498427     0.927218    -1.526854
H      2.014504     0.466399    -2.375290
H      2.137344     1.700704    -1.080773
C      0.049055     0.230789     0.173123
H     -0.650742    -0.610574     0.091148
H      0.302448     0.396403     1.223605
C      0.121012     1.486726    -1.845220
H     -0.422237     0.795723    -2.503544
H      0.131694     2.487817    -2.284919
C     -0.511497     1.509197    -0.455284
H     -1.605393     1.510550    -0.460613
O     -0.007933     2.663713     0.219183
P     -1.045950     3.489552     1.264510
O     -2.129644     2.505731     1.672588
O     -1.315488     4.867147     0.723027
O      0.012231     3.698049     2.534286
C      0.253145     2.607676     3.424282
H      1.326553     2.376380     3.402808
H     -0.323075     1.723746     3.120771
C     -0.160787     2.998538     4.833048
H     -0.029445     2.125063     5.487464
O      0.683608     4.025948     5.385489
C      0.149728     5.302394     4.963008
H      0.361651     6.004065     5.777781
H      0.663492     5.627008     4.052881
C     -1.354266     5.095725     4.701714
H     -1.606378     5.391185     3.680801
H     -1.967709     5.682371     5.395833
C     -1.573614     3.583129     4.902113
H     -2.228968     3.152589     4.138435
H     -1.993975     3.381386     5.894925
