32
Energy = -1142.573267337 Hartree (EUMP2 CORRECTED)
O      0.162741    -0.173527     1.178524
C      1.060659     0.952358     1.294088
H      1.937954     0.601619     1.846508
H      0.576025     1.767117     1.847423
C     -0.619468     0.009553    -0.026617
H     -0.520314    -0.905478    -0.624378
H     -1.670701     0.172481     0.232740
C      1.335538     1.369334    -0.140479
H      2.028776     0.661697    -0.615368
H      1.714929     2.389409    -0.241355
C     -0.059348     1.231474    -0.754145
H     -0.043991     1.120735    -1.843150
O     -0.876688     2.352401    -0.396246
P     -0.774152     3.726815    -1.338264
O     -2.029024     4.543196    -1.160821
O     -0.221156     3.321344    -2.692033
O      0.464723     4.459620    -0.459706
C      0.561603     5.880434    -0.388875
H      1.008546     6.097727     0.589601
H     -0.440118     6.332538    -0.431417
C      1.453487     6.487681    -1.465133
H      1.595602     7.547862    -1.205552
O      2.771089     5.897720    -1.433203
C      2.793952     4.891319    -2.466528
H      3.848908     4.681740    -2.672896
H      2.282627     3.986173    -2.125293
C      2.039147     5.524691    -3.628771
H      1.620214     4.772348    -4.303621
H      2.707012     6.190748    -4.189612
C      0.937050     6.322179    -2.911895
H     -0.004338     5.770409    -2.937632
H      0.770337     7.300694    -3.377123
