32
Energy = -1142.570684227 Hartree (EUMP2 CORRECTED)
O      0.825099    -0.439379     0.786943
C      1.709664     0.246611    -0.123282
H      2.457575    -0.482623    -0.451311
H      2.207221     1.079501     0.390715
C     -0.488592     0.170038     0.684517
H     -1.201148    -0.624465     0.426266
H     -0.764458     0.622302     1.641522
C      0.797764     0.762650    -1.225003
H      0.506600    -0.060378    -1.891276
H      1.214764     1.584872    -1.812559
C     -0.399002     1.239212    -0.404665
H     -1.314738     1.330972    -0.998247
O     -0.056171     2.492994     0.186202
P     -1.151519     3.764764    -0.011303
O     -2.006598     3.847729     1.237138
O     -1.717465     3.704116    -1.408909
O     -0.027046     4.989846     0.021846
C      0.603588     5.299839     1.268050
H      1.676261     5.089334     1.167857
H      0.183825     4.690030     2.079073
C      0.394756     6.769846     1.589024
H      0.895544     6.991425     2.542474
O      1.039495     7.614007     0.606955
C      0.031509     7.972765    -0.357037
H      0.404143     8.856790    -0.884958
H     -0.123140     7.148152    -1.060947
C     -1.214758     8.227759     0.484892
H     -2.139320     8.126192    -0.093722
H     -1.174940     9.240938     0.903272
C     -1.097385     7.169551     1.596193
H     -1.720092     6.293583     1.393253
H     -1.391375     7.572515     2.571938
