32
Energy = -1142.567640740 Hartree (EUMP2 CORRECTED)
O     -0.221265    -0.726960    -0.274440
C      0.514270    -0.118661    -1.356246
H      0.355969    -0.744861    -2.239522
H      1.579497    -0.074298    -1.100900
C     -0.247216     0.286360     0.747689
H     -1.079377     0.039666     1.414671
H      0.697701     0.303867     1.297135
C     -0.078124     1.283988    -1.459931
H     -0.982075     1.263688    -2.080998
H      0.617923     2.026078    -1.861139
C     -0.448861     1.627682     0.003683
H     -1.493069     1.950469     0.069903
O      0.270327     2.741856     0.549150
P      1.928094     2.809723     0.689122
O      2.538534     1.423536     0.674505
O      2.248752     3.844257     1.740450
O      2.174889     3.501223    -0.831208
C      3.520322     3.848489    -1.160884
H      3.856212     3.205974    -1.985695
H      4.196239     3.702910    -0.305627
C      3.559407     5.304900    -1.589536
H      4.588979     5.561696    -1.879320
O      2.757721     5.502549    -2.779749
C      1.490669     6.030919    -2.347961
H      1.030913     6.499993    -3.224252
H      0.855318     5.219981    -1.973884
C      1.857776     7.003686    -1.234159
H      1.014862     7.226682    -0.570654
H      2.217345     7.943293    -1.672068
C      2.991300     6.256642    -0.514115
H      2.610986     5.678633     0.334406
H      3.763185     6.940459    -0.142724
