32
Energy = -1142.567129817 Hartree (EUMP2 CORRECTED)
O      1.084758    -0.504029     0.392801
C      2.057732     0.510585     0.087740
H      2.995770    -0.005377    -0.139271
H      2.200260     1.177836     0.948972
C     -0.223101     0.073255     0.149858
H     -0.798226    -0.664769    -0.420755
H     -0.725990     0.286751     1.098468
C      1.445497     1.269971    -1.079296
H      1.522741     0.669895    -1.996355
H      1.884790     2.257878    -1.243878
C     -0.011195     1.385465    -0.621923
H     -0.740946     1.483684    -1.432063
O     -0.121432     2.480571     0.283976
P     -1.175391     3.754507    -0.056544
O     -1.144304     4.651376     1.145627
O     -2.403629     3.144495    -0.700979
O     -0.347558     4.588314    -1.266125
C     -0.288731     4.079414    -2.591972
H     -1.299297     3.873894    -2.966774
H      0.303561     3.152659    -2.641985
C      0.397387     5.122912    -3.457569
H      0.518974     4.710967    -4.469309
O     -0.419805     6.301572    -3.611886
C      0.022617     7.246644    -2.620367
H     -0.347823     8.227471    -2.934182
H     -0.386394     6.980095    -1.640192
C      1.542185     7.115090    -2.646713
H      2.014209     7.481598    -1.728551
H      1.946187     7.678080    -3.496678
C      1.737981     5.602903    -2.850727
H      1.907524     5.105638    -1.891650
H      2.582190     5.382787    -3.514058
