32
Energy = -1142.564178921 Hartree (EUMP2 CORRECTED)
O      0.449150    -0.759474    -0.300029
C      0.510830    -0.351358    -1.690717
H     -0.387345    -0.731626    -2.198685
H      1.390163    -0.819706    -2.147965
C      0.289244     0.428857     0.505386
H     -0.392220     0.185674     1.326795
H      1.252839     0.761702     0.913381
C      0.567052     1.171483    -1.698074
H      0.168798     1.622454    -2.609295
H      1.589298     1.537288    -1.572429
C     -0.246532     1.500575    -0.442560
H     -1.315646     1.332951    -0.644322
O     -0.128837     2.774377     0.172401
P      0.753968     4.087153    -0.407996
O      0.148880     5.287473     0.274517
O      1.007959     3.954996    -1.886769
O      2.217238     3.741894     0.350222
C      2.234242     3.836891     1.772283
H      1.393397     3.280220     2.205903
H      2.153773     4.889411     2.083814
C      3.541919     3.239656     2.255694
H      3.604639     3.360797     3.346340
O      3.568803     1.810600     2.018745
C      4.353886     1.591742     0.836096
H      4.660436     0.541168     0.848105
H      3.752691     1.799967    -0.057222
C      5.500419     2.586366     0.972862
H      6.010702     2.784619     0.023499
H      6.234464     2.202963     1.691990
C      4.776976     3.821234     1.530411
H      4.446315     4.470611     0.714902
H      5.407850     4.405431     2.209707
