32
Energy = -1142.565565571 Hartree (EUMP2 CORRECTED)
O      1.228348    -0.101770     0.208565
C      2.044996     0.999832    -0.242176
H      2.977138     0.571699    -0.624972
H      2.270882     1.666091     0.602141
C     -0.162654     0.266353     0.022555
H     -0.623207    -0.497884    -0.617338
H     -0.668364     0.295595     0.992262
C      1.196693     1.707629    -1.285177
H      1.188202     1.118877    -2.213317
H      1.507000     2.729272    -1.517005
C     -0.183443     1.646059    -0.634511
H     -1.002462     1.768601    -1.350060
O     -0.313355     2.623513     0.408639
P     -1.266653     3.986440     0.132184
O     -1.976518     4.280990     1.427184
O     -1.950551     3.837119    -1.210375
O     -0.090974     5.170943    -0.095933
C      1.281434     5.068344     0.233600
H      1.580773     4.024885     0.374268
H      1.479161     5.613712     1.173700
C      2.085689     5.704223    -0.889898
H      3.145210     5.731918    -0.597199
O      2.029554     4.894535    -2.083984
C      0.972628     5.429230    -2.910371
H      1.155727     5.059817    -3.924514
H     -0.001473     5.081296    -2.550116
C      1.133972     6.939016    -2.763954
H      0.214794     7.483956    -3.004875
H      1.932440     7.291018    -3.428321
C      1.545264     7.097130    -1.289303
H      0.679184     7.347857    -0.671191
H      2.306205     7.874601    -1.156707
