32
Energy = -1142.567282692 Hartree (EUMP2 CORRECTED)
O      1.803314     0.416876     0.566053
C      2.228734     1.645187    -0.047338
H      3.193220     1.446007    -0.525624
H      2.345766     2.432698     0.709404
C      0.355160     0.467743     0.684105
H     -0.031159    -0.482676     0.296890
H      0.066178     0.595741     1.732030
C      1.098991     1.985224    -1.006909
H      1.135682     1.316298    -1.876748
H      1.082630     3.027376    -1.339119
C     -0.123120     1.669743    -0.147542
H     -1.011759     1.424363    -0.736686
O     -0.345964     2.817704     0.670852
P     -1.706131     2.934077     1.668619
O     -2.370585     4.256130     1.372758
O     -1.323193     2.443077     3.041842
O     -2.638361     1.692484     1.004997
C     -3.545852     2.031782    -0.041837
H     -3.006040     2.318260    -0.956490
H     -4.174224     2.881938     0.257461
C     -4.394276     0.806361    -0.316725
H     -5.116941     1.044137    -1.110093
O     -3.575506    -0.270637    -0.837967
C     -3.337931    -1.184331     0.246740
H     -3.042012    -2.138301    -0.201197
H     -2.536572    -0.802784     0.890375
C     -4.666842    -1.221490     0.990221
H     -4.575492    -1.612253     2.009784
H     -5.380858    -1.844111     0.437400
C     -5.079391     0.256509     0.953824
H     -4.690213     0.781282     1.831184
H     -6.166241     0.389958     0.917997
