32
Energy = -1142.568846271 Hartree (EUMP2 CORRECTED)
O     -0.170205     0.441792    -1.967487
C      0.952674     1.266901    -2.353716
H      1.089818     1.129603    -3.430351
H      1.853958     0.955865    -1.811645
C     -0.498079     0.902954    -0.645604
H     -1.523705     0.586494    -0.434378
H      0.187563     0.470410     0.095426
C      0.548859     2.676684    -1.935702
H      1.406182     3.316001    -1.722131
H     -0.075686     3.133120    -2.713506
C     -0.312562     2.435422    -0.674919
H     -1.285513     2.924378    -0.801388
O      0.138630     2.950334     0.581625
P      1.711495     2.796902     1.159336
O      1.869440     3.906533     2.169674
O      2.666141     2.502349     0.029436
O      1.557455     1.341961     1.985089
C      0.722590     1.320799     3.144870
H     -0.133236     0.661658     2.943335
H      0.357178     2.329000     3.382618
C      1.516259     0.782925     4.322856
H      0.857217     0.746932     5.202449
O      1.926374    -0.584557     4.087516
C      3.279329    -0.534328     3.597183
H      3.702706    -1.533561     3.742568
H      3.281692    -0.271526     2.533787
C      3.936392     0.553232     4.439849
H      4.831739     0.970707     3.966256
H      4.217962     0.141017     5.416693
C      2.808332     1.588583     4.583802
H      2.899999     2.393143     3.848537
H      2.795741     2.043330     5.580795
