32
Energy = -1142.571559824 Hartree (EUMP2 CORRECTED)
O      1.345952    -0.278019     0.949120
C      2.220319     0.694482     0.354081
H      3.184212     0.201038     0.193262
H      2.352553     1.554922     1.024574
C     -0.018552     0.127367     0.653637
H     -0.547663    -0.760084     0.288460
H     -0.501787     0.498641     1.562569
C      1.494118     1.109260    -0.916135
H      1.566501     0.308285    -1.663297
H      1.839541     2.052255    -1.350131
C      0.060528     1.236222    -0.408836
H     -0.702640     1.112118    -1.184499
O     -0.054041     2.535439     0.175110
P     -1.596965     3.012604     0.676362
O     -1.578885     3.107063     2.187087
O     -2.616936     2.225439    -0.109599
O     -1.572502     4.555569     0.048095
C     -0.745548     5.535568     0.680899
H      0.026857     5.844053    -0.035736
H     -0.269319     5.121447     1.579685
C     -1.591937     6.734673     1.072814
H     -0.938484     7.481583     1.546271
O     -2.143504     7.386464    -0.095033
C     -3.474156     6.864434    -0.271262
H     -4.006552     7.574775    -0.912368
H     -3.429300     5.880739    -0.750536
C     -4.026516     6.768117     1.147290
H     -4.848285     6.048454     1.229217
H     -4.391221     7.751845     1.467368
C     -2.792355     6.347182     1.964516
H     -2.780246     5.271238     2.160310
H     -2.748907     6.865216     2.929195
