32
Energy = -1142.563174653 Hartree (EUMP2 CORRECTED)
O     -0.657781     0.682603    -1.529036
C      0.470190     1.494121    -1.920657
H      0.538847     1.422267    -3.010947
H      1.385758     1.114219    -1.459366
C     -1.115322     1.165191    -0.253627
H     -2.211966     1.142529    -0.287858
H     -0.764799     0.523901     0.557205
C      0.122441     2.886123    -1.410749
H      0.995064     3.526115    -1.252157
H     -0.575316     3.370601    -2.106551
C     -0.587520     2.606687    -0.071040
H     -1.419282     3.302880     0.083860
O      0.240412     2.833418     1.068392
P      1.703925     2.112710     1.460207
O      1.721423     1.969434     2.962733
O      2.791454     2.786904     0.653019
O      1.540068     0.596748     0.760291
C      1.436921    -0.583357     1.554637
H      0.658979    -1.211416     1.099618
H      1.160111    -0.333080     2.587950
C      2.756457    -1.341941     1.535570
H      2.610420    -2.298420     2.059600
O      3.118944    -1.685970     0.179928
C      4.071655    -0.696770    -0.259796
H      4.592272    -1.127668    -1.121373
H      3.555671     0.225651    -0.546322
C      4.956056    -0.467440     0.959266
H      5.477768     0.494404     0.921706
H      5.696901    -1.273074     1.037177
C      3.942464    -0.536655     2.112790
H      3.617655     0.460811     2.417635
H      4.359079    -1.032085     2.997367
