32
Energy = -1142.569669670 Hartree (EUMP2 CORRECTED)
O      0.994871     0.058648     0.589265
C      1.798783     1.256849     0.511254
H      2.840623     0.947307     0.641538
H      1.516185     1.950771     1.313784
C     -0.191144     0.267117    -0.216112
H     -0.247515    -0.554892    -0.941565
H     -1.079119     0.261537     0.423692
C      1.473609     1.844484    -0.850875
H      1.969673     1.265195    -1.641874
H      1.710675     2.903307    -0.974479
C     -0.037708     1.623418    -0.904100
H     -0.434815     1.627134    -1.925530
O     -0.710598     2.587666    -0.089965
P     -1.088568     4.061538    -0.791770
O     -2.582946     4.213712    -0.933471
O     -0.140046     4.304360    -1.954452
O     -0.553886     4.934209     0.534848
C     -0.664057     6.355883     0.442277
H     -1.391554     6.697858     1.189452
H     -1.010271     6.671723    -0.552849
C      0.694778     6.976634     0.719697
H      0.598557     8.070692     0.664066
O      1.121250     6.693358     2.073447
C      1.997847     5.554610     2.004224
H      2.577495     5.547513     2.933191
H      1.408544     4.634936     1.918397
C      2.827936     5.804233     0.749548
H      3.274084     4.887020     0.348164
H      3.635420     6.510485     0.979034
C      1.801292     6.430399    -0.210005
H      1.382747     5.685220    -0.894154
H      2.243468     7.233747    -0.810397
