32
Energy = -1142.559818754 Hartree (EUMP2 CORRECTED)
O      0.617439     1.049719    -1.703255
C      1.201833     2.316066    -1.340048
H      1.761219     2.671785    -2.211475
H      1.878734     2.180949    -0.487777
C     -0.602909     0.898224    -0.952256
H     -1.426184     0.793400    -1.674347
H     -0.560147     0.004478    -0.330086
C      0.007909     3.180300    -0.959833
H     -0.538099     3.487444    -1.862786
H      0.262191     4.058240    -0.359704
C     -0.816962     2.181610    -0.139906
H     -1.884767     2.436761    -0.107583
O     -0.347066     2.236267     1.200609
P      0.450690     1.148275     2.188766
O     -0.548714     0.192945     2.809149
O      1.420235     1.981898     2.987406
O      1.314213     0.286931     1.034820
C      1.267558    -1.139726     1.001245
H      0.417196    -1.497168     1.597319
H      1.142083    -1.434239    -0.049633
C      2.557010    -1.756180     1.519908
H      2.411439    -2.844787     1.569294
O      3.660108    -1.559408     0.614364
C      4.228231    -0.265916     0.918726
H      5.288960    -0.328964     0.651007
H      3.739589     0.497300     0.303869
C      3.977633    -0.013591     2.416260
H      3.484865     0.948151     2.579253
H      4.914217    -0.034766     2.986227
C      3.042118    -1.162616     2.845122
H      2.217524    -0.807806     3.471078
H      3.594705    -1.931645     3.398407
