32
Energy = -1142.566861532 Hartree (EUMP2 CORRECTED)
O      1.581676     1.096409    -1.669119
C      2.033394     2.446003    -1.498071
H      2.504873     2.757703    -2.434283
H      2.779180     2.485500    -0.688070
C      0.721872     0.876786    -0.528575
H      0.132401    -0.015180    -0.737291
H      1.323309     0.721809     0.374947
C      0.774204     3.226319    -1.123580
H      0.274273     3.600827    -2.023018
H      0.960840     4.065945    -0.447357
C     -0.099751     2.177262    -0.406731
H     -1.059149     2.050168    -0.929712
O     -0.368055     2.631036     0.915180
P     -1.215895     1.735159     2.049153
O     -2.657644     1.595500     1.602605
O     -0.792220     2.280794     3.387156
O     -0.490454     0.229060     1.834572
C     -1.299803    -0.926843     1.607064
H     -0.856035    -1.483002     0.769392
H     -2.321142    -0.620850     1.346632
C     -1.317757    -1.834481     2.825171
H     -2.010990    -2.662206     2.617486
O     -0.038300    -2.454814     3.058167
C      0.741511    -1.543018     3.865854
H      1.403308    -2.168387     4.475540
H      1.342603    -0.902595     3.211970
C     -0.256262    -0.708653     4.688176
H     -0.092233     0.361407     4.539126
H     -0.178825    -0.934345     5.758361
C     -1.638212    -1.111134     4.135607
H     -2.287903    -0.243357     3.984124
H     -2.142632    -1.810142     4.813593
