32
Energy = -1142.568408662 Hartree (EUMP2 CORRECTED)
O      0.255067    -0.663606     0.424238
C      0.724361    -0.310074    -0.896638
H      0.465457    -1.140738    -1.559823
H      1.809418    -0.154094    -0.877063
C      0.332234     0.573330     1.149385
H     -0.297172     0.472612     2.038392
H      1.368976     0.787944     1.439226
C      0.008412     0.999567    -1.212832
H     -0.992315     0.791377    -1.611168
H      0.542052     1.632722    -1.922865
C     -0.135023     1.672878     0.172865
H     -1.185018     1.927515     0.355166
O      0.557784     2.901802     0.438655
P      1.995842     3.309500    -0.289002
O      2.856041     2.074284    -0.463058
O      2.481220     4.580636     0.363787
O      1.340750     3.701492    -1.795093
C      2.243238     4.251252    -2.755798
H      2.360175     3.533308    -3.578815
H      3.231846     4.445515    -2.315296
C      1.663899     5.553060    -3.281038
H      2.341407     5.959170    -4.046413
O      0.408046     5.310025    -3.960337
C     -0.640926     5.624949    -3.026922
H     -1.549306     5.784258    -3.617453
H     -0.783026     4.791700    -2.329349
C     -0.133635     6.868635    -2.307157
H     -0.628637     7.032190    -1.343492
H     -0.297698     7.750284    -2.939281
C      1.365471     6.566359    -2.154401
H      1.585254     6.117864    -1.180178
H      1.978847     7.468422    -2.260590
