32
Energy = -1142.562283526 Hartree (EUMP2 CORRECTED)
O      1.688200     0.512483    -1.483360
C      0.424936     0.483084    -2.192599
H      0.387231    -0.462159    -2.744331
H      0.374746     1.321582    -2.897520
C      1.477095     1.133636    -0.193023
H      1.660423     0.382200     0.588684
H      2.175775     1.968594    -0.078793
C     -0.640313     0.626177    -1.119089
H     -0.802332    -0.327832    -0.598815
H     -1.594222     1.001802    -1.497762
C      0.034292     1.617607    -0.170266
H     -0.414141     1.626695     0.830606
O      0.042086     2.938857    -0.712113
P     -1.451814     3.711518    -0.866783
O     -2.319309     3.283881     0.294786
O     -1.899594     3.589930    -2.307710
O     -0.901138     5.269296    -0.621796
C      0.454599     5.631235    -0.371657
H      0.957816     4.874523     0.238772
H      0.384527     6.564019     0.202678
C      1.327926     5.875345    -1.625875
H      1.776764     6.875739    -1.542008
O      2.464591     4.965854    -1.633590
C      2.314039     4.073058    -2.753815
H      3.315313     3.708688    -3.005526
H      1.671136     3.231692    -2.473517
C      1.660729     4.937571    -3.820671
H      1.196733     4.351484    -4.622241
H      2.404971     5.614798    -4.260392
C      0.626558     5.697580    -2.983674
H     -0.284682     5.103160    -2.878636
H      0.347729     6.664823    -3.418035
