32
Energy = -1142.559019420 Hartree (EUMP2 CORRECTED)
O      1.305646    -0.028451     0.240239
C      1.623687     0.920074    -0.795619
H      2.288387     0.407808    -1.497936
H      2.147427     1.789179    -0.373801
C      0.106202     0.459022     0.884155
H     -0.497134    -0.420066     1.133217
H      0.360789     1.006438     1.799816
C      0.265742     1.304581    -1.361741
H     -0.112692     0.491394    -1.994531
H      0.241678     2.234936    -1.934488
C     -0.592072     1.418331    -0.095591
H     -1.634484     1.149562    -0.290476
O     -0.544978     2.727371     0.486590
P     -1.526539     3.918499    -0.208908
O     -1.945295     4.817410     0.925487
O     -2.463720     3.262607    -1.195154
O     -0.381924     4.736571    -1.140541
C      0.982345     4.805072    -0.746704
H      1.328764     3.841300    -0.364543
H      1.099854     5.548232     0.055380
C      1.847312     5.179261    -1.963692
H      2.241133     6.198543    -1.845727
O      3.022845     4.312866    -2.015470
C      3.057215     3.650985    -3.289576
H      4.109765     3.491389    -3.546069
H      2.555655     2.673206    -3.222338
C      2.304949     4.579657    -4.231529
H      1.959621     4.077186    -5.142420
H      2.947723     5.421422    -4.518965
C      1.161299     5.037876    -3.325854
H      0.370132     4.284676    -3.270214
H      0.692830     5.975191    -3.640866
