32
Energy = -1142.570189104 Hartree (EUMP2 CORRECTED)
O      1.848019     0.733318     0.727883
C      2.223701     1.749984    -0.223774
H      3.191456     1.453920    -0.641934
H      2.319228     2.721248     0.279016
C      0.397521     0.666421     0.766971
H      0.107369    -0.369644     0.550152
H      0.036401     0.947809     1.759159
C      1.079073     1.773692    -1.224230
H      1.142155     0.903638    -1.891429
H      1.011751     2.690397    -1.816219
C     -0.120642     1.644494    -0.287903
H     -1.021705     1.295442    -0.802431
O     -0.346614     2.921445     0.316211
P     -1.909128     3.530348     0.258068
O     -2.541366     3.144512    -1.064138
O     -1.834097     4.921920     0.819365
O     -2.590245     2.535344     1.444201
C     -3.576228     1.581933     1.067665
H     -3.203858     0.910130     0.284533
H     -4.479451     2.079396     0.681119
C     -3.919301     0.780359     2.308930
H     -4.702228     0.051352     2.055066
O     -2.777170    -0.000268     2.738172
C     -2.185759     0.689644     3.852195
H     -1.571212    -0.040778     4.387788
H     -1.563283     1.517521     3.492572
C     -3.384362     1.205058     4.638684
H     -3.125112     2.010988     5.334366
H     -3.834033     0.381396     5.206647
C     -4.315158     1.668664     3.509544
H     -4.121322     2.716951     3.263988
H     -5.375012     1.557206     3.764595
