32
Energy = -1142.561277723 Hartree (EUMP2 CORRECTED)
O      0.798606    -0.357747     0.274246
C      1.420249     0.512966    -0.687057
H      2.121980    -0.099149    -1.262222
H      1.974292     1.310535    -0.170672
C     -0.423285     0.298382     0.690156
H     -1.179957    -0.485747     0.797532
H     -0.273700     0.805446     1.650693
C      0.251925     1.072332    -1.483004
H     -0.124685     0.302461    -2.168829
H      0.458996     1.980887    -2.054495
C     -0.779740     1.341348    -0.382233
H     -1.803250     1.239760    -0.754688
O     -0.616640     2.635947     0.209659
P     -1.289722     3.950397    -0.625687
O     -1.797849     4.891231     0.435694
O     -2.102062     3.421817    -1.783486
O      0.106286     4.621584    -1.297266
C      1.365507     4.508642    -0.642450
H      1.543275     3.492642    -0.277452
H      1.411025     5.195103     0.215149
C      2.414146     4.917775    -1.662420
H      2.006136     5.732182    -2.278502
O      3.577029     5.404120    -0.933440
C      4.778238     5.064130    -1.649866
H      5.358535     5.979154    -1.820394
H      5.373143     4.386299    -1.022639
C      4.331526     4.381754    -2.944922
H      5.048445     3.629505    -3.292742
H      4.196957     5.119353    -3.745148
C      2.979988     3.803063    -2.532110
H      3.116284     2.900552    -1.923121
H      2.324382     3.559587    -3.374490
