32
Energy = -1142.568751286 Hartree (EUMP2 CORRECTED)
O      1.681981     0.450128     1.253220
C      2.040638     1.590410     0.444882
H      3.110844     1.504152     0.233343
H      1.843238     2.521687     0.991084
C      0.277969     0.178441     1.026444
H      0.188037    -0.885189     0.772299
H     -0.297345     0.395746     1.932005
C      1.138792     1.486029    -0.773692
H      1.494554     0.691977    -1.444481
H      1.042957     2.421462    -1.329859
C     -0.185594     1.084691    -0.118054
H     -0.869502     0.575697    -0.805602
O     -0.811844     2.221203     0.467781
P     -1.779657     3.271970    -0.423956
O     -1.073039     4.607343    -0.505925
O     -3.201417     3.097922     0.047518
O     -1.677109     2.528169    -1.934332
C     -1.043012     3.196374    -3.026088
H     -0.348364     2.485962    -3.495745
H     -0.491177     4.073112    -2.661772
C     -2.068116     3.632171    -4.059244
H     -1.542176     4.198714    -4.841159
O     -2.669064     2.510385    -4.734460
C     -3.797315     2.079150    -3.937602
H     -4.534600     1.683837    -4.645508
H     -3.476885     1.282588    -3.258187
C     -4.288293     3.307533    -3.150829
H     -4.307889     3.099897    -2.078102
H     -5.291659     3.612414    -3.470984
C     -3.249360     4.402787    -3.464875
H     -2.963105     4.971861    -2.574652
H     -3.633641     5.101136    -4.218176
