32
Energy = -1142.571847235 Hartree (EUMP2 CORRECTED)
O      0.371417    -0.497462     0.548648
C      1.318218     0.142585    -0.338127
H      1.975427    -0.644773    -0.720553
H      1.911289     0.879900     0.217851
C     -0.864337     0.255526     0.499991
H     -1.665000    -0.435898     0.205031
H     -1.080500     0.674935     1.487636
C      0.460896     0.822701    -1.390717
H      0.069719     0.080347    -2.100205
H      0.949443     1.630373    -1.940068
C     -0.672936     1.371762    -0.525447
H     -1.585402     1.580256    -1.096870
O     -0.243878     2.532370     0.188159
P     -0.319145     4.024125    -0.604686
O     -1.373052     4.857101     0.091829
O     -0.269651     3.791114    -2.094856
O      1.185439     4.582036    -0.150050
C      1.393139     4.935714     1.220101
H      2.139602     4.249433     1.640784
H      0.457894     4.853797     1.789901
C      1.903309     6.364225     1.299648
H      2.074370     6.614699     2.356551
O      3.193322     6.491247     0.656716
C      2.946048     6.967069    -0.679627
H      3.890731     7.384754    -1.043148
H      2.627304     6.136814    -1.318929
C      1.833293     7.995625    -0.506950
H      1.274337     8.169659    -1.432887
H      2.262497     8.948715    -0.174276
C      0.963772     7.369218     0.596940
H      0.097535     6.844169     0.184246
H      0.595850     8.123493     1.301645
