32
Energy = -1142.570054310 Hartree (EUMP2 CORRECTED)
O      1.827342     0.648037     1.105860
C      2.127980     1.189987    -0.202892
H      2.972195     0.615963    -0.598874
H      2.395737     2.249251    -0.129883
C      0.404729     0.751288     1.317900
H      0.013653    -0.261811     1.491324
H      0.206594     1.376922     2.194071
C      0.839488     1.026931    -0.988431
H      0.697879    -0.024045    -1.278156
H      0.800602     1.660610    -1.873482
C     -0.214670     1.381089     0.066566
H     -1.201624     0.964156    -0.173103
O     -0.365236     2.778730     0.333844
P     -0.299179     3.959643    -0.843733
O      1.086435     4.050066    -1.450650
O     -1.033656     5.146847    -0.278257
O     -1.285485     3.163375    -1.964487
C     -0.959771     3.204595    -3.353979
H     -0.993402     2.173609    -3.734234
H      0.053461     3.605754    -3.493324
C     -1.963666     4.037292    -4.133158
H     -1.624210     4.085870    -5.177890
O     -3.262022     3.413991    -4.180347
C     -3.980449     3.824206    -2.993592
H     -5.039153     3.852281    -3.275175
H     -3.830097     3.080265    -2.204414
C     -3.412642     5.192666    -2.577513
H     -3.055271     5.177852    -1.545193
H     -4.162358     5.985903    -2.681922
C     -2.225154     5.420636    -3.532797
H     -1.355430     5.820989    -3.002676
H     -2.495981     6.113629    -4.338572
