32
Energy = -1142.568496531 Hartree (EUMP2 CORRECTED)
O      1.467231    -0.332367    -0.209200
C      0.868976    -0.001366    -1.483458
H      0.859446    -0.921263    -2.076454
H      1.470230     0.761208    -1.994413
C      0.896437     0.545047     0.790483
H      0.471138    -0.085563     1.582256
H      1.676869     1.189547     1.208190
C     -0.504480     0.544909    -1.135058
H     -1.181115    -0.275318    -0.858991
H     -0.952689     1.155351    -1.923855
C     -0.171443     1.388770     0.098063
H     -1.038565     1.588536     0.740154
O      0.441316     2.626035    -0.276214
P     -0.604836     3.825366    -0.846829
O     -1.725116     4.007396     0.146241
O     -0.841365     3.587417    -2.327154
O      0.453529     5.089847    -0.660048
C      1.528457     5.232135    -1.595219
H      1.414863     4.528568    -2.426880
H      2.458515     4.999988    -1.058354
C      1.591198     6.664735    -2.166033
H      2.605286     7.067133    -2.057921
O      1.338795     6.672675    -3.586679
C     -0.099489     6.552230    -3.721610
H     -0.353699     7.010846    -4.682223
H     -0.384442     5.494285    -3.722435
C     -0.706199     7.274883    -2.501241
H     -1.397090     6.613754    -1.972111
H     -1.248070     8.182598    -2.790719
C      0.514903     7.605549    -1.622329
H      0.316981     7.454437    -0.558606
H      0.846780     8.637452    -1.789443
