32
Energy = -1142.570858519 Hartree (EUMP2 CORRECTED)
O      0.496157    -0.619306     0.269009
C      1.793373    -0.012154     0.387784
H      2.527917    -0.823724     0.379766
H      1.872004     0.550025     1.328488
C     -0.403035     0.384816    -0.274899
H     -0.972164    -0.092702    -1.080090
H     -1.088718     0.738064     0.500206
C      1.865228     0.927333    -0.806541
H      2.009002     0.345397    -1.726403
H      2.637803     1.698472    -0.730807
C      0.469133     1.545966    -0.777215
H      0.121351     1.907973    -1.749487
O      0.506749     2.610325     0.176433
P     -0.727544     3.766726     0.129506
O     -0.999904     4.193771     1.543408
O     -1.756619     3.271441    -0.866152
O      0.125602     5.034512    -0.563697
C      0.413760     4.971790    -1.955478
H     -0.509762     4.869767    -2.538781
H      1.069542     4.110971    -2.173490
C      1.149882     6.243030    -2.340093
H      1.512295     6.136578    -3.371744
O      0.294676     7.398261    -2.349512
C      0.236096     7.905321    -0.996869
H      0.105366     8.989409    -1.084617
H     -0.623390     7.468391    -0.480521
C      1.554946     7.495399    -0.312761
H      1.343759     6.925305     0.593978
H      2.163740     8.368611    -0.050407
C      2.264567     6.608579    -1.354582
H      2.717656     5.721290    -0.900980
H      3.043152     7.172473    -1.882421
