32
Energy = -1142.556151529 Hartree (EUMP2 CORRECTED)
O      1.246358    -0.051532     0.365651
C      1.941222     1.084054    -0.183107
H      2.886611     0.711576    -0.589173
H      2.140499     1.828179     0.599799
C     -0.157351     0.298716     0.410461
H     -0.714915    -0.565074     0.029939
H     -0.460932     0.519867     1.439476
C      0.977352     1.644754    -1.216206
H      0.966200     1.000625    -2.106542
H      1.198577     2.678362    -1.498089
C     -0.353648     1.554093    -0.456156
H     -1.230578     1.449976    -1.100877
O     -0.486037     2.662797     0.419004
P     -1.236286     4.152974     0.170050
O     -0.128664     5.116887    -0.201247
O     -2.220846     4.345238     1.290226
O     -2.191405     3.949274    -1.208437
C     -1.692012     3.591263    -2.488666
H     -0.778860     2.995506    -2.440725
H     -1.454465     4.506798    -3.057531
C     -2.782376     2.821407    -3.214349
H     -2.441753     2.600150    -4.236042
O     -3.006307     1.536690    -2.587279
C     -4.167966     1.671892    -1.745323
H     -4.537127     0.659549    -1.554023
H     -3.893623     2.162793    -0.804271
C     -5.109959     2.538647    -2.571314
H     -5.890916     3.012810    -1.966914
H     -5.588021     1.926809    -3.345887
C     -4.142281     3.555980    -3.194633
H     -4.067454     4.446030    -2.563750
H     -4.449036     3.862840    -4.200834
