32
Energy = -1142.561218021 Hartree (EUMP2 CORRECTED)
O      0.526485    -1.129624    -0.628830
C      0.558015    -0.378490    -1.864079
H     -0.155158    -0.857391    -2.542508
H      1.561770    -0.449549    -2.307691
C      0.729968    -0.166921     0.430177
H      0.439821    -0.641834     1.368368
H      1.775915     0.145260     0.490293
C      0.185918     1.069156    -1.505534
H     -0.631006     1.470073    -2.113857
H      1.039094     1.750004    -1.594041
C     -0.190587     0.972676    -0.019417
H     -1.220704     0.600839     0.072031
O     -0.184018     2.235178     0.621445
P      0.960335     2.868181     1.672663
O      1.958176     1.787249     2.039910
O      0.211041     3.713387     2.663987
O      1.715880     3.960543     0.646988
C      2.883480     3.575420    -0.074997
H      3.101738     2.508813     0.075106
H      2.708841     3.774078    -1.142019
C      4.077196     4.391284     0.395074
H      4.972535     4.030278    -0.131251
O      3.955133     5.782055     0.043146
C      3.201478     6.432681     1.094141
H      3.595855     7.453029     1.161586
H      2.143665     6.462896     0.815420
C      3.408169     5.603794     2.375628
H      2.445806     5.279474     2.778272
H      3.934124     6.179765     3.146327
C      4.244375     4.392864     1.916161
H      3.902720     3.454666     2.364462
H      5.304487     4.539977     2.156460
