32
Energy = -1142.572823133 Hartree (EUMP2 CORRECTED)
O      0.676972    -0.182197     1.105278
C      1.401311     1.063295     1.189417
H      2.406263     0.821724     1.549336
H      0.907733     1.740756     1.899138
C     -0.348459    -0.023431     0.094216
H     -0.258862    -0.870731    -0.596667
H     -1.338772    -0.026599     0.560866
C      1.346232     1.628896    -0.219273
H      2.036239     1.076561    -0.872234
H      1.543779     2.700361    -0.295365
C     -0.102164     1.318959    -0.600757
H     -0.278020     1.262245    -1.681645
O     -0.983873     2.286763    -0.017135
P     -1.515053     3.527083    -1.000832
O     -2.277208     4.506203    -0.146965
O     -2.052567     2.929084    -2.287421
O      0.012003     4.159694    -1.358392
C      0.136503     5.555722    -1.622774
H      0.865362     5.971802    -0.913995
H     -0.822486     6.071201    -1.475229
C      0.643965     5.763257    -3.039359
H      0.778056     6.841968    -3.210826
O      1.963175     5.176342    -3.184788
C      1.795158     3.933299    -3.887260
H      2.773740     3.668816    -4.301521
H      1.454453     3.154416    -3.193790
C      0.728355     4.243276    -4.928115
H      0.252497     3.343983    -5.334617
H      1.175354     4.812184    -5.753280
C     -0.246803     5.104732    -4.114024
H     -1.002729     4.465504    -3.646190
H     -0.755263     5.857213    -4.727617
