32
Energy = -1142.566827692 Hartree (EUMP2 CORRECTED)
O      1.484042     0.294227     0.217258
C      2.002857     1.553461    -0.268797
H      3.014270     1.357501    -0.638684
H      2.044035     2.284014     0.549677
C      0.042957     0.329924     0.075528
H     -0.253609    -0.560463    -0.494066
H     -0.428325     0.313361     1.063642
C      1.010704     1.992364    -1.330653
H      1.145216     1.387387    -2.238876
H      1.057195     3.053633    -1.584266
C     -0.312878     1.623178    -0.659048
H     -1.141020     1.499057    -1.365701
O     -0.676636     2.591099     0.334860
P     -1.584658     3.906270    -0.148069
O     -2.094616     4.575055     1.099812
O     -2.460571     3.507290    -1.321743
O     -0.301934     4.814053    -0.784842
C     -0.627290     5.678599    -1.857980
H     -1.239183     5.147971    -2.601123
H     -1.204394     6.549958    -1.502159
C      0.656110     6.172391    -2.494211
H      1.300118     6.617314    -1.728183
O      1.418822     5.073151    -3.050964
C      1.099185     5.008156    -4.441519
H      1.873308     4.404753    -4.924191
H      0.121777     4.524066    -4.595006
C      1.068938     6.469666    -4.872697
H      0.550885     6.635149    -5.824391
H      2.096347     6.838956    -4.966494
C      0.361440     7.125514    -3.678036
H     -0.720503     7.179585    -3.854003
H      0.713942     8.143981    -3.485055
