32
Energy = -1142.574346411 Hartree (EUMP2 CORRECTED)
O      0.065240    -0.144581     1.245367
C      1.121209     0.836564     1.142186
H      2.019368     0.380521     1.570266
H      0.856583     1.737329     1.710781
C     -0.865929     0.093190     0.161745
H     -0.981666    -0.850766    -0.386326
H     -1.833051     0.409791     0.565708
C      1.210047     1.147388    -0.341852
H      1.706548     0.324632    -0.874153
H      1.709580     2.092681    -0.568349
C     -0.272543     1.193636    -0.716556
H     -0.450603     1.041539    -1.786037
O     -0.862680     2.431092    -0.300332
P     -0.658120     3.762510    -1.290956
O     -1.755852     4.752268    -0.990778
O     -0.320841     3.264235    -2.681958
O      0.770878     4.330404    -0.602350
C      0.941285     5.716842    -0.314127
H      1.567349     5.766237     0.585946
H     -0.031691     6.184211    -0.108179
C      1.648802     6.462277    -1.437835
H      1.834623     7.488481    -1.087112
O      2.951619     5.897660    -1.697052
C      2.781806     4.949103    -2.771969
H      3.776628     4.785829    -3.200041
H      2.375146     4.010888    -2.383840
C      1.792163     5.611450    -3.726825
H      1.211884     4.868688    -4.281532
H      2.325786     6.261888    -4.430745
C      0.896721     6.440309    -2.786194
H     -0.093148     5.991014    -2.679904
H      0.758787     7.460848    -3.161788
