32
Energy = -1142.568156571 Hartree (EUMP2 CORRECTED)
O      0.465668    -0.520086     0.880940
C      0.608163    -0.530435    -0.565164
H     -0.223212    -1.111968    -0.989056
H      1.549021    -1.035914    -0.807981
C      0.079751     0.810228     1.284112
H     -0.680995     0.722285     2.066062
H      0.944628     1.361965     1.677272
C      0.570016     0.925837    -1.005356
H      0.238079     1.063785    -2.038102
H      1.551858     1.391418    -0.892117
C     -0.415924     1.497742     0.017220
H     -1.427265     1.141612    -0.237269
O     -0.482632     2.898098     0.249772
P     -0.256431     4.024476    -0.984051
O     -0.238468     5.363643    -0.293549
O     -1.120396     3.636240    -2.159018
O      1.304295     3.644161    -1.478576
C      2.378159     4.028253    -0.623302
H      2.454137     3.335400     0.228494
H      2.213800     5.043462    -0.234635
C      3.650789     3.970532    -1.445029
H      4.501012     4.257203    -0.810375
O      3.917889     2.611385    -1.872318
C      3.487289     2.506530    -3.240937
H      3.992735     1.632857    -3.664929
H      2.399681     2.374328    -3.282533
C      3.904356     3.835859    -3.857530
H      3.375231     4.058227    -4.790912
H      4.982541     3.825965    -4.058918
C      3.563488     4.821921    -2.731074
H      2.543248     5.198587    -2.847934
H      4.249428     5.675587    -2.698299
