32
Energy = -1142.567725354 Hartree (EUMP2 CORRECTED)
O      1.154862    -0.332378     0.222204
C      1.928418     0.637635    -0.514303
H      2.704970     0.082462    -1.049658
H      2.395035     1.353431     0.175707
C     -0.172667     0.217591     0.406699
H     -0.889312    -0.544993     0.077998
H     -0.336757     0.452677     1.463381
C      0.912349     1.334324    -1.403065
H      0.628480     0.677626    -2.236724
H      1.232366     2.308041    -1.781688
C     -0.260655     1.494241    -0.433064
H     -1.230793     1.610924    -0.928892
O     -0.034925     2.606035     0.443255
P     -0.669461     4.085023    -0.003073
O     -0.472556     5.010866     1.169704
O     -1.992435     3.881104    -0.712106
O      0.489466     4.449434    -1.180955
C      0.092292     5.256430    -2.292098
H     -0.938687     5.608660    -2.180389
H      0.124683     4.619249    -3.189091
C      1.032636     6.464650    -2.486208
H      1.378684     6.507216    -3.525691
O      0.325308     7.708006    -2.280392
C      0.236878     7.862038    -0.843995
H      0.136069     8.935441    -0.656881
H     -0.653502     7.345436    -0.465161
C      1.513837     7.230879    -0.257540
H      1.243226     6.498840     0.507708
H      2.174641     7.986808     0.182325
C      2.173721     6.550042    -1.471315
H      2.591562     5.571409    -1.223366
H      2.961619     7.184073    -1.896363
