32
Energy = -1142.568693980 Hartree (EUMP2 CORRECTED)
O      1.429690    -0.229513    -0.020223
C      1.901628     0.839684    -0.869550
H      2.673591     0.412257    -1.517472
H      2.334737     1.641362    -0.256977
C      0.041052     0.035545     0.300543
H     -0.545187    -0.837305    -0.015999
H     -0.065398     0.186159     1.379149
C      0.658282     1.325343    -1.594092
H      0.372123     0.609825    -2.377217
H      0.733198     2.322454    -2.032109
C     -0.364137     1.298134    -0.457953
H     -1.397724     1.269101    -0.819664
O     -0.170829     2.397856     0.431715
P     -0.833948     3.894118     0.019041
O     -1.579965     4.405007     1.222112
O     -1.402775     3.783405    -1.380506
O      0.588147     4.781736    -0.032035
C      1.170904     5.169453    -1.270731
H      0.418500     5.185291    -2.067459
H      1.969813     4.457532    -1.546018
C      1.786473     6.548291    -1.097176
H      2.412461     6.762948    -1.974691
O      0.800064     7.590472    -1.060679
C      0.318312     7.687168     0.301240
H      0.052502     8.739127     0.452040
H     -0.568365     7.059575     0.426956
C      1.467769     7.206074     1.207953
H      1.118585     6.392877     1.847147
H      1.851530     8.015963     1.839652
C      2.544770     6.704268     0.225810
H      2.997002     5.762700     0.553892
H      3.338218     7.451051     0.100820
