32
Energy = -1142.572692179 Hartree (EUMP2 CORRECTED)
O      1.895351     0.378362    -0.999388
C      2.227421     1.781253    -1.100386
H      3.036713     1.861416    -1.832658
H      2.567849     2.159062    -0.127868
C      0.504351     0.282822    -0.608791
H      0.004129    -0.372790    -1.333328
H      0.428349    -0.145952     0.395782
C      0.925608     2.446445    -1.512427
H      0.716995     2.245598    -2.572104
H      0.875793     3.522414    -1.330578
C     -0.070732     1.700598    -0.625422
H     -1.093078     1.742581    -1.016411
O     -0.016142     2.199254     0.712674
P     -0.945729     3.547729     1.108369
O     -1.535770     4.090097    -0.180985
O     -0.165809     4.356122     2.107010
O     -2.171220     2.814116     1.982233
C     -3.347271     2.355665     1.316052
H     -3.480933     1.290631     1.551308
H     -3.256743     2.490294     0.229834
C     -4.555680     3.136710     1.806296
H     -5.435464     2.808438     1.234278
O     -4.863131     2.855676     3.184573
C     -4.063949     3.745345     3.999918
H     -4.668032     3.966927     4.887129
H     -3.143295     3.234398     4.297975
C     -3.751066     4.984439     3.140190
H     -2.671374     5.133839     3.067537
H     -4.201734     5.890710     3.561955
C     -4.351438     4.652689     1.759632
H     -3.694644     4.949250     0.935848
H     -5.326885     5.138492     1.634481
