32
Energy = -1142.563027910 Hartree (EUMP2 CORRECTED)
O      1.841494    -0.486344    -0.330936
C      2.230010     0.699324    -1.049667
H      2.912796     0.377156    -1.842307
H      2.723815     1.403409    -0.370437
C      0.687793    -0.106203     0.446636
H      0.085079    -1.012288     0.567530
H      0.998550     0.273001     1.422346
C      0.899449     1.250430    -1.547185
H      0.907692     2.315106    -1.797920
H      0.575208     0.680081    -2.427342
C     -0.054930     0.989023    -0.363076
H     -1.018996     0.611246    -0.722490
O     -0.399165     2.188352     0.332713
P      0.426827     2.888720     1.622705
O      1.869408     2.412175     1.577960
O     -0.436755     2.840432     2.851790
O      0.388513     4.462415     1.069806
C      1.219674     4.822274    -0.030325
H      0.578799     5.060376    -0.890288
H      1.899168     3.999406    -0.291781
C      2.052102     6.035684     0.348249
H      2.689913     6.301741    -0.506926
O      1.218519     7.192130     0.584274
C      0.970034     7.240437     2.002839
H      0.648900     8.262554     2.228700
H      0.183001     6.527251     2.268429
C      2.306814     6.854204     2.629445
H      2.192555     6.454637     3.642791
H      2.961188     7.733320     2.673104
C      2.860436     5.807843     1.644910
H      2.706882     4.787337     2.007054
H      3.933147     5.947011     1.469079
