32
Energy = -1142.563515826 Hartree (EUMP2 CORRECTED)
O      1.827319     0.096690    -0.324360
C      0.909105     0.102243    -1.442442
H      1.002156    -0.871562    -1.933527
H      1.179612     0.898915    -2.146685
C      1.268497     0.932055     0.716873
H      1.165862     0.317610     1.621477
H      1.940871     1.773167     0.915233
C     -0.451659     0.374774    -0.825673
H     -0.834263    -0.526637    -0.327905
H     -1.189716     0.753349    -1.537997
C     -0.083792     1.431728     0.218076
H     -0.828222     1.534823     1.016871
O      0.136746     2.702591    -0.400534
P     -1.258689     3.530128    -0.886282
O     -2.290485     3.435001     0.209324
O     -1.542980     3.126153    -2.322216
O     -0.614119     5.066261    -0.883153
C      0.764332     5.319173    -1.156659
H      1.322380     4.383045    -1.253017
H      1.174712     5.873123    -0.303437
C      0.956289     6.122939    -2.458583
H      1.054801     7.190958    -2.227923
O      2.225638     5.751676    -3.061293
C      1.903823     4.844018    -4.128321
H      2.787221     4.783115    -4.771147
H      1.670874     3.845260    -3.728262
C      0.673434     5.467325    -4.769238
H      0.120964     4.768718    -5.407350
H      0.976623     6.334229    -5.369726
C     -0.130378     5.881715    -3.527077
H     -0.798286     5.071089    -3.223930
H     -0.734749     6.779606    -3.693068
