32
Energy = -1142.568846941 Hartree (EUMP2 CORRECTED)
O      1.737878     0.064595     0.002439
C      1.969226     1.029523    -1.047836
H      2.635000     0.552621    -1.774122
H      2.451727     1.925864    -0.636935
C      0.431924     0.333252     0.568952
H     -0.143116    -0.600742     0.528123
H      0.538128     0.659941     1.608463
C      0.583596     1.360070    -1.574439
H      0.207077     0.534452    -2.193651
H      0.525085     2.300540    -2.127409
C     -0.210850     1.437109    -0.269803
H     -1.288796     1.303230    -0.410267
O      0.033441     2.679075     0.403599
P     -0.894183     3.998567    -0.028576
O     -0.750261     5.036623     1.057171
O     -2.228090     3.517775    -0.559104
O      0.064643     4.469020    -1.341560
C     -0.161098     5.784905    -1.853369
H     -1.141692     6.177729    -1.555615
H     -0.134372     5.716282    -2.947471
C      0.955381     6.716047    -1.403048
H      1.894898     6.143181    -1.396130
O      1.068470     7.777880    -2.400967
C      1.343443     9.029443    -1.743817
H      2.179655     9.513566    -2.262632
H      0.457880     9.675713    -1.829291
C      1.636082     8.685021    -0.285624
H      1.400536     9.509430     0.397322
H      2.694742     8.426653    -0.156765
C      0.757448     7.451608    -0.086193
H     -0.296337     7.735368     0.021548
H      1.008407     6.827540     0.773818
