32
Energy = -1142.570206432 Hartree (EUMP2 CORRECTED)
O      1.652616     0.286124     0.468587
C      2.075120     1.485351    -0.200616
H      2.977993     1.234616    -0.767114
H      2.304103     2.273433     0.529779
C      0.223372     0.404421     0.717073
H     -0.239098    -0.528053     0.370240
H      0.033089     0.546036     1.784930
C      0.876379     1.873671    -1.052034
H      0.797345     1.199160    -1.914666
H      0.879055     2.913343    -1.392767
C     -0.272557     1.622923    -0.079055
H     -1.224935     1.420517    -0.578296
O     -0.370264     2.791863     0.741494
P     -1.638518     2.957547     1.846321
O     -2.014388     4.417395     1.843891
O     -1.332586     2.134580     3.073044
O     -2.822842     2.074639     1.031888
C     -3.492933     2.735482    -0.040629
H     -2.775162     3.093695    -0.792528
H     -4.050643     3.605514     0.335116
C     -4.431787     1.725228    -0.670024
H     -4.982577     2.208591    -1.489210
O     -3.675811     0.649685    -1.282141
C     -3.731574    -0.473116    -0.385498
H     -3.485783    -1.362128    -0.974893
H     -3.004668    -0.342428     0.425458
C     -5.158508    -0.443138     0.146523
H     -5.284202    -1.024472     1.066750
H     -5.843322    -0.836830    -0.614433
C     -5.375104     1.061719     0.357832
H     -5.071168     1.350863     1.368048
H     -6.417291     1.363211     0.204873
