32
Energy = -1142.563841448 Hartree (EUMP2 CORRECTED)
O      1.601257     0.337504     0.177945
C      2.012101     1.571796    -0.452451
H      2.961913     1.368631    -0.957179
H      2.156029     2.351954     0.306422
C      0.154074     0.337867     0.244865
H     -0.197656    -0.587684    -0.229227
H     -0.169065     0.366688     1.290467
C      0.863102     1.928875    -1.378371
H      0.875623     1.276034    -2.262031
H      0.842817     2.974807    -1.691329
C     -0.337517     1.581436    -0.495956
H     -1.257623     1.406407    -1.064411
O     -0.570875     2.597949     0.488321
P     -1.545323     3.887238     0.062714
O     -1.898350     4.612932     1.333026
O     -2.556984     3.432524    -0.971813
O     -0.356172     4.769224    -0.764611
C     -0.818600     5.586907    -1.831789
H     -1.414378     5.005756    -2.548467
H     -1.452557     6.393601    -1.428045
C      0.390453     6.193413    -2.523569
H      1.205231     6.247094    -1.791650
O      0.880750     5.350305    -3.603330
C      0.671967     6.042165    -4.837416
H      1.396557     5.650662    -5.557853
H     -0.345380     5.855660    -5.219631
C      0.853738     7.513050    -4.483348
H      0.450158     8.195943    -5.240054
H      1.919800     7.729757    -4.347481
C      0.108987     7.571184    -3.148053
H     -0.967749     7.692136    -3.327426
H      0.430618     8.385893    -2.491938
