32
Energy = -1142.568311400 Hartree (EUMP2 CORRECTED)
O      0.616898    -0.025346     0.905032
C      1.420841     1.176470     0.899011
H      2.422975     0.888550     1.231806
H      0.998690     1.915480     1.592107
C     -0.405340     0.122656    -0.109555
H     -0.335979    -0.745582    -0.777756
H     -1.393774     0.152017     0.360463
C      1.346231     1.680214    -0.531459
H      1.972995     1.056390    -1.184025
H      1.614948     2.732995    -0.650082
C     -0.130337     1.432404    -0.847358
H     -0.339799     1.373863    -1.921190
O     -0.966826     2.435529    -0.252665
P     -1.150473     3.876442    -1.070094
O     -2.328718     4.614114    -0.488408
O     -0.985357     3.618607    -2.558710
O      0.275273     4.580265    -0.501556
C      0.426067     5.986175    -0.669201
H     -0.545445     6.486271    -0.782577
H      0.885101     6.344757     0.261878
C      1.352107     6.327242    -1.848117
H      1.870294     7.266101    -1.594777
O      2.388069     5.350040    -2.038391
C      2.061800     4.615647    -3.236895
H      2.994108     4.158773    -3.585072
H      1.307002     3.851189    -3.020868
C      1.488775     5.676088    -4.169749
H      0.910683     5.243216    -4.993494
H      2.299511     6.289651    -4.583729
C      0.616789     6.481231    -3.197005
H     -0.375078     6.021713    -3.142819
H      0.507438     7.534529    -3.478767
