32
Energy = -1142.576632601 Hartree (EUMP2 CORRECTED)
O      0.100423    -0.088520     1.305147
C      1.219170     0.707993     0.857283
H      2.122611     0.119533     1.046002
H      1.265113     1.645945     1.426230
C     -1.050304     0.272258     0.502213
H     -1.445147    -0.650772     0.058337
H     -1.812916     0.736850     1.135492
C      0.931972     0.981675    -0.608798
H      1.126918     0.081255    -1.207094
H      1.480161     1.831105    -1.023377
C     -0.572383     1.258118    -0.562704
H     -1.064645     1.121643    -1.531654
O     -0.843581     2.576397    -0.070854
P     -0.739960     3.850615    -1.158256
O     -1.419303     5.030942    -0.511066
O     -1.040319     3.315230    -2.540225
O      0.924149     4.111637    -1.142454
C      1.471063     5.235744    -0.450322
H      2.304198     4.877918     0.169617
H      0.703162     5.692796     0.187008
C      1.995537     6.269160    -1.435056
H      2.268138     7.175628    -0.877056
O      3.214312     5.831623    -2.074589
C      2.834117     5.021748    -3.210304
H      3.621732     5.160014    -3.959609
H      2.796171     3.968864    -2.910192
C      1.448158     5.512111    -3.667374
H      0.731721     4.687566    -3.691708
H      1.494259     5.969048    -4.663098
C      1.043076     6.547063    -2.599806
H     -0.006059     6.456523    -2.302069
H      1.218264     7.567469    -2.961963
