32
Energy = -1142.574560218 Hartree (EUMP2 CORRECTED)
O      0.126811    -0.271986     0.831064
C      1.253755     0.573377     0.505644
H      2.152202    -0.041959     0.615885
H      1.299700     1.423427     1.198077
C     -1.014969     0.200254     0.075439
H     -1.404516    -0.648520    -0.501904
H     -1.785293     0.569051     0.760326
C      0.977586     1.049750    -0.909821
H      1.178830     0.245433    -1.630560
H      1.529360     1.946855    -1.200726
C     -0.524241     1.326236    -0.832255
H     -1.007879     1.335903    -1.814200
O     -0.769978     2.556653    -0.145001
P     -0.575116     3.986599    -0.999020
O     -1.644042     4.955626    -0.556232
O     -0.294773     3.627274    -2.442949
O      0.885358     4.461552    -0.313947
C      0.982684     5.699858     0.391956
H      1.513124     5.500570     1.332605
H     -0.021504     6.085298     0.610140
C      1.767859     6.727638    -0.405247
H      1.743993     7.676693     0.149376
O      3.163746     6.384012    -0.515631
C      3.305743     5.520287    -1.665887
H      4.305391     5.715259    -2.070612
H      3.238724     4.475332    -1.344809
C      2.163945     5.873049    -2.636119
H      1.576186     4.987168    -2.888881
H      2.549234     6.318842    -3.560884
C      1.296991     6.879815    -1.853737
H      0.226596     6.678762    -1.963536
H      1.494822     7.906044    -2.186165
