32
Energy = -1142.566834543 Hartree (EUMP2 CORRECTED)
O      0.721212     0.317095     1.169321
C      1.470262     0.606211    -0.034625
H      2.008030    -0.308764    -0.303010
H      2.192307     1.409104     0.163179
C     -0.507545     1.081913     1.132325
H     -1.347784     0.374830     1.161353
H     -0.552063     1.746066     2.001098
C      0.431546     1.051162    -1.049342
H     -0.110657     0.182024    -1.446716
H      0.815317     1.658466    -1.872834
C     -0.492949     1.885262    -0.164237
H     -1.498942     2.018464    -0.583159
O      0.101294     3.152959     0.124934
P     -0.223309     4.390351    -0.991261
O     -1.563900     4.998982    -0.642051
O      0.101686     3.878405    -2.375931
O      0.968281     5.433647    -0.482361
C      1.899097     5.222668     0.574252
H      2.869969     5.587200     0.214679
H      1.980213     4.157640     0.823964
C      1.504491     6.017018     1.811240
H      2.281225     5.865367     2.576196
O      1.509427     7.433548     1.519806
C      0.137127     7.815374     1.296436
H      0.093640     8.903766     1.407405
H     -0.177675     7.519720     0.289732
C     -0.632806     7.041021     2.357409
H     -1.696615     6.942690     2.117722
H     -0.526081     7.538934     3.329622
C      0.090799     5.686731     2.340643
H     -0.422992     5.000739     1.665389
H      0.136817     5.222560     3.332784
