32
Energy = -1142.565613338 Hartree (EUMP2 CORRECTED)
O      0.735217    -0.142229    -0.601276
C      1.373535     0.988199    -1.238146
H      1.876888     0.603411    -2.130299
H      2.110629     1.435896    -0.559624
C     -0.414452     0.353103     0.124211
H     -1.285643    -0.231378    -0.199314
H     -0.257466     0.219660     1.200155
C      0.235740     1.955227    -1.514144
H     -0.365635     1.600584    -2.362177
H      0.536317     2.990319    -1.690432
C     -0.562003     1.837992    -0.216532
H     -1.604945     2.149745    -0.338411
O      0.074798     2.580286     0.827243
P     -0.232411     4.239108     0.942874
O     -1.051948     4.623798    -0.275884
O      1.044162     4.918028     1.350187
O     -1.264897     4.257939     2.269591
C     -1.923770     3.127813     2.819421
H     -1.645911     3.055011     3.879889
H     -1.615743     2.200811     2.317502
C     -3.431798     3.295614     2.711520
H     -3.913145     2.399558     3.132526
O     -3.877903     4.402135     3.532578
C     -4.120056     5.510590     2.647872
H     -4.765401     6.210673     3.188103
H     -3.171753     5.994295     2.384537
C     -4.764727     4.864866     1.429154
H     -4.731322     5.501683     0.538441
H     -5.810470     4.618529     1.652870
C     -3.909624     3.599838     1.275053
H     -3.054538     3.820307     0.628020
H     -4.472594     2.760067     0.850550
