32
Energy = -1142.560280301 Hartree (EUMP2 CORRECTED)
O      1.326050    -0.148151    -0.040375
C      1.889164     0.975011    -0.742544
H      2.758508     0.600259    -1.292638
H      2.216011     1.742444    -0.027030
C     -0.067651     0.162303     0.212910
H     -0.644307    -0.732027    -0.049231
H     -0.213035     0.402953     1.271746
C      0.748848     1.480790    -1.611166
H      0.602470     0.799786    -2.460048
H      0.860491     2.502027    -1.986631
C     -0.436369     1.377960    -0.646272
H     -1.388888     1.260366    -1.172274
O     -0.511692     2.513675     0.223346
P     -1.321852     3.883538    -0.370548
O     -1.807699     4.607368     0.858252
O     -2.165773     3.470927    -1.550788
O     -0.017152     4.736565    -1.014562
C      1.171959     4.835417    -0.232832
H      1.046228     5.576082     0.569016
H      1.392817     3.863670     0.225222
C      2.316838     5.267859    -1.145459
H      1.965379     5.189157    -2.182834
O      2.679488     6.662307    -0.922834
C      4.098339     6.769658    -0.744790
H      4.429159     7.692238    -1.233587
H      4.336017     6.836723     0.328687
C      4.683979     5.497650    -1.348176
H      5.683346     5.262874    -0.964107
H      4.741911     5.587265    -2.439684
C      3.615631     4.482646    -0.950950
H      3.732599     4.204397     0.105462
H      3.627054     3.563195    -1.545373
