32
Energy = -1142.558920122 Hartree (EUMP2 CORRECTED)
O      1.562663     0.298861     0.921643
C      1.885344     1.212262    -0.150495
H      2.825015     0.864286    -0.590031
H      2.007269     2.230914     0.237539
C      0.126120     0.304284     1.081177
H     -0.214977    -0.738671     1.042135
H     -0.144482     0.750301     2.043690
C      0.685455     1.138015    -1.079574
H      0.695453     0.189179    -1.634909
H      0.613118     1.977612    -1.776301
C     -0.459685     1.142006    -0.061167
H     -1.387836     0.694713    -0.437649
O     -0.692538     2.439429     0.461253
P     -1.212012     3.815023    -0.376171
O     -0.058096     4.780561    -0.434824
O     -2.588324     4.136823     0.156149
O     -1.386449     3.283023    -1.968529
C     -2.281066     2.235588    -2.333619
H     -2.994094     2.017415    -1.527410
H     -1.694454     1.333358    -2.568139
C     -3.061584     2.640217    -3.581518
H     -3.450726     1.730611    -4.059711
O     -4.214008     3.438699    -3.284735
C     -3.739725     4.795386    -3.100785
H     -4.577718     5.446245    -3.370781
H     -3.477113     4.945197    -2.049279
C     -2.516270     4.947789    -4.028144
H     -1.660403     5.329173    -3.467011
H     -2.724630     5.628909    -4.861629
C     -2.240909     3.516216    -4.534806
H     -1.174873     3.269216    -4.514423
H     -2.617414     3.382450    -5.555975
