32
Energy = -1142.564901524 Hartree (EUMP2 CORRECTED)
O      1.632751    -0.063538     0.375225
C      1.961626     0.843363    -0.692711
H      2.777285     0.393102    -1.269525
H      2.297568     1.802505    -0.278127
C      0.192410    -0.026352     0.595223
H     -0.217009    -1.006958     0.311555
H     -0.003692     0.192594     1.644073
C      0.668942     1.019356    -1.475802
H      0.494227     0.152086    -2.126426
H      0.627286     1.938251    -2.067839
C     -0.357913     1.043325    -0.347565
H     -1.367253     0.768252    -0.691549
O     -0.393935     2.380541     0.143826
P     -0.924296     2.898529     1.665380
O     -0.501921     1.891161     2.718973
O     -2.327426     3.428868     1.545656
O      0.090234     4.214244     1.744770
C      1.491480     3.969256     1.888405
H      1.996166     4.321607     0.979004
H      1.689960     2.897394     2.026253
C      2.016105     4.727260     3.095682
H      3.090984     4.519586     3.194866
O      1.915083     6.156742     2.904984
C      0.663791     6.564280     3.491291
H      0.736709     7.643313     3.663182
H     -0.159695     6.344989     2.804077
C      0.558164     5.736350     4.769783
H     -0.479818     5.603219     5.092963
H      1.112654     6.230399     5.576826
C      1.226436     4.403234     4.382650
H      0.490941     3.618370     4.184528
H      1.897156     4.047240     5.172791
