32
Energy = -1142.561908463 Hartree (EUMP2 CORRECTED)
O      1.339383     0.021530     0.923755
C      1.888407     0.910829    -0.072111
H      2.796633     0.435231    -0.454431
H      2.135676     1.881099     0.376950
C     -0.083387     0.272316     0.990392
H     -0.591066    -0.696888     0.905537
H     -0.338848     0.745983     1.943802
C      0.772691     1.063704    -1.091616
H      0.682773     0.145403    -1.689360
H      0.881701     1.928562    -1.751047
C     -0.438897     1.215510    -0.166236
H     -1.388655     0.923809    -0.632779
O     -0.516306     2.524038     0.375599
P     -1.025227     3.896676    -0.472821
O      0.064988     4.925964    -0.351288
O     -2.478781     4.118547    -0.122919
O     -0.967321     3.394280    -2.081883
C     -1.946805     2.523028    -2.642257
H     -2.812770     2.423175    -1.975342
H     -1.486915     1.536019    -2.813232
C     -2.410594     3.077611    -3.986292
H     -2.861409     2.259514    -4.565014
O     -3.440389     4.066646    -3.857754
C     -2.779244     5.314350    -3.538913
H     -3.427673     6.107169    -3.925942
H     -2.692079     5.408819    -2.452523
C     -1.398615     5.255268    -4.224531
H     -0.608402     5.464780    -3.500355
H     -1.326765     5.976411    -5.047253
C     -1.294253     3.805691    -4.743682
H     -0.308563     3.369189    -4.554158
H     -1.502760     3.758557    -5.819267
