32
Energy = -1142.566111553 Hartree (EUMP2 CORRECTED)
O      1.752913     0.408979    -0.027165
C      1.932527     1.557782    -0.886086
H      2.767504     1.326789    -1.555852
H      2.180340     2.440196    -0.281075
C      0.343337     0.307839     0.296626
H     -0.008523    -0.674845    -0.045632
H      0.209953     0.395266     1.379360
C      0.593830     1.739866    -1.578984
H      0.467429     0.983600    -2.365842
H      0.436184     2.737273    -1.995217
C     -0.369449     1.446871    -0.426516
H     -1.375051     1.181372    -0.771247
O     -0.449340     2.539911     0.493376
P     -1.368818     3.881763     0.036161
O     -1.617161     4.667738     1.298465
O     -2.415195     3.410379    -0.942644
O     -0.207461     4.698805    -0.875140
C      0.607474     5.621075    -0.167710
H      0.037856     6.531875     0.067181
H      0.956168     5.194678     0.785287
C      1.813956     5.971750    -1.013737
H      2.335072     5.052753    -1.305263
O      1.431988     6.614960    -2.255696
C      1.644908     8.017217    -2.095379
H      1.691258     8.454192    -3.097235
H      0.810126     8.480006    -1.544188
C      2.941068     8.103285    -1.299795
H      3.107286     9.081985    -0.834788
H      3.787302     7.881634    -1.960016
C      2.733572     6.977199    -0.280739
H      2.227051     7.361518     0.614273
H      3.670862     6.514919     0.045635
