32
Energy = -1142.570182400 Hartree (EUMP2 CORRECTED)
O      1.329397     0.234895     0.470404
C      1.966309     1.282560    -0.294711
H      2.792806     0.816232    -0.839967
H      2.357000     2.056216     0.379093
C     -0.055981     0.612513     0.659495
H     -0.674603    -0.232312     0.330585
H     -0.242228     0.820343     1.718601
C      0.856381     1.837898    -1.169438
H      0.635317     1.138717    -1.987408
H      1.037074     2.832659    -1.582184
C     -0.305940     1.869335    -0.178612
H     -1.287226     1.859490    -0.668306
O     -0.194938     2.995641     0.699384
P     -0.843327     4.448173     0.157337
O     -0.956502     4.417263    -1.353408
O     -0.168033     5.539502     0.942307
O     -2.382853     4.195000     0.800355
C     -3.528097     4.475186     0.005536
H     -3.314743     4.286156    -1.052491
H     -3.830154     5.530611     0.123987
C     -4.648174     3.573039     0.491137
H     -5.559970     3.794748    -0.081909
O     -4.334750     2.186553     0.215618
C     -3.859096     1.607074     1.441974
H     -3.954421     0.521390     1.337556
H     -2.810666     1.882776     1.606127
C     -4.764252     2.217044     2.505250
H     -4.349501     2.139358     3.516645
H     -5.740629     1.717557     2.487270
C     -4.879725     3.668210     2.017202
H     -4.095173     4.284234     2.466233
H     -5.852514     4.114547     2.252796
