32
Energy = -1142.559168213 Hartree (EUMP2 CORRECTED)
O      1.475722    -0.110933    -0.163173
C      1.879767     0.979386    -1.011174
H      2.644670     0.586294    -1.688471
H      2.315312     1.787090    -0.405938
C      0.150089     0.204182     0.330612
H     -0.440390    -0.715907     0.258921
H      0.204198     0.530676     1.375358
C      0.592677     1.423076    -1.686955
H      0.320676     0.702679    -2.469466
H      0.609913     2.425693    -2.122770
C     -0.412095     1.341883    -0.533377
H     -1.426401     1.144938    -0.893249
O     -0.415530     2.528919     0.269061
P     -1.296022     3.853835    -0.332718
O     -1.866662     4.537708     0.882837
O     -2.090384     3.394854    -1.531046
O     -0.034548     4.799508    -0.932947
C      1.252989     4.759778    -0.343581
H      1.323451     5.492186     0.478546
H      1.453553     3.765026     0.071309
C      2.304256     5.087584    -1.386188
H      2.032875     4.595239    -2.326999
O      2.356173     6.507215    -1.687228
C      3.537433     7.036928    -1.083669
H      3.777324     7.969155    -1.603740
H      3.366264     7.259180    -0.017183
C      4.569317     5.928289    -1.246572
H      5.444560     6.044893    -0.596931
H      4.907604     5.894545    -2.288600
C      3.719714     4.700684    -0.906603
H      3.714908     4.535939     0.179503
H      4.073818     3.778398    -1.378087
