32
Energy = -1142.570890886 Hartree (EUMP2 CORRECTED)
O      1.069754    -0.277801    -0.697408
C      1.903604     0.815504    -1.157838
H      2.656086     0.380439    -1.823569
H      2.390026     1.312638    -0.312671
C     -0.270082     0.224224    -0.516506
H     -0.941139    -0.358972    -1.163874
H     -0.571427     0.104180     0.529276
C      0.937705     1.764971    -1.843211
H      0.632095     1.358918    -2.817830
H      1.339717     2.770691    -1.975599
C     -0.268476     1.705382    -0.901165
H     -1.198813     2.012100    -1.400069
O     -0.128584     2.453183     0.310300
P      0.637618     3.956515     0.332225
O     -0.220950     4.921885    -0.463481
O      2.121164     3.802907     0.105003
O      0.438332     4.206641     1.960083
C     -0.862615     4.564491     2.438339
H     -1.171371     3.809995     3.173450
H     -1.584876     4.589730     1.611980
C     -0.812279     5.931862     3.098113
H     -1.834289     6.209908     3.392579
O     -0.048515     5.919728     4.319872
C      1.337996     6.132716     3.967715
H      1.781551     6.686787     4.802785
H      1.837917     5.164960     3.860206
C      1.348622     6.909088     2.637137
H      1.922499     6.364784     1.883766
H      1.789317     7.905980     2.756114
C     -0.136186     6.997363     2.232458
H     -0.287681     6.809682     1.164790
H     -0.549111     7.979992     2.491189
