32
Energy = -1142.559836508 Hartree (EUMP2 CORRECTED)
O      0.208863    -0.197641     1.751571
C      0.599854    -0.631145     0.423511
H     -0.148070    -1.350129     0.059745
H      1.564947    -1.143766     0.501868
C     -0.213096     1.179048     1.664496
H     -1.090482     1.307149     2.305393
H      0.585870     1.854046     1.999238
C      0.646160     0.622700    -0.439049
H      0.515703     0.425683    -1.505160
H      1.592955     1.152383    -0.301073
C     -0.487707     1.440985     0.185937
H     -1.451861     0.993073    -0.107896
O     -0.556249     2.838968    -0.007045
P     -0.158645     3.734046    -1.375892
O      0.437091     5.024302    -0.866836
O     -1.310120     3.644846    -2.348967
O      1.052921     2.804378    -2.068578
C      2.416296     3.214670    -1.987213
H      3.007141     2.357036    -1.634784
H      2.527418     4.054200    -1.288131
C      2.904944     3.615309    -3.370353
H      3.976742     3.854595    -3.307307
O      2.804345     2.498142    -4.283624
C      1.577525     2.673609    -5.021677
H      1.662243     2.052090    -5.919191
H      0.724359     2.355341    -4.413328
C      1.524709     4.170898    -5.298638
H      0.510218     4.521413    -5.515095
H      2.173589     4.412883    -6.149571
C      2.082448     4.764397    -3.994928
H      1.277535     5.067810    -3.321223
H      2.710424     5.643573    -4.178511
