32
Energy = -1142.567162653 Hartree (EUMP2 CORRECTED)
O      1.264529     0.220637     0.386755
C      1.883242     1.526321     0.325442
H      2.964400     1.367429     0.388287
H      1.550191     2.139197     1.173319
C      0.015260     0.291346    -0.341917
H      0.026200    -0.508335    -1.093951
H     -0.824854     0.144537     0.344676
C      1.403011     2.118136    -0.987546
H      1.931966     1.644646    -1.827033
H      1.493800     3.203960    -1.065106
C     -0.060503     1.676489    -0.984606
H     -0.517175     1.657981    -1.980667
O     -0.843642     2.509124    -0.117127
P     -1.560972     3.865552    -0.762991
O     -2.557129     4.381475     0.240157
O     -1.893426     3.609530    -2.224788
O     -0.174522     4.837011    -0.750747
C     -0.250939     6.015891    -1.535806
H     -1.042648     5.906077    -2.288988
H     -0.501423     6.883906    -0.905489
C      1.091567     6.281903    -2.233956
H      1.791800     6.785831    -1.559303
O      1.750010     5.077779    -2.643952
C      0.991083     4.589973    -3.769798
H      1.672013     3.965091    -4.355584
H      0.143513     3.992994    -3.412725
C      0.505588     5.850419    -4.520845
H     -0.572422     5.795385    -4.701603
H      1.002028     5.967917    -5.490179
C      0.865544     7.008446    -3.564773
H      0.080291     7.772412    -3.505922
H      1.794872     7.498027    -3.876955
