32
Energy = -1142.571650121 Hartree (EUMP2 CORRECTED)
O      0.422585    -0.416164     0.656667
C      1.299596     0.180135    -0.326977
H      1.932581    -0.623970    -0.715363
H      1.926883     0.945756     0.147342
C     -0.820149     0.327243     0.656270
H     -1.633336    -0.381827     0.451182
H     -0.971686     0.793669     1.634783
C      0.365545     0.804449    -1.348646
H     -0.068992     0.026824    -1.991956
H      0.808878     1.585768    -1.969903
C     -0.708177     1.391673    -0.433487
H     -1.659736     1.568889    -0.948698
O     -0.237174     2.587984     0.188927
P     -0.397492     4.038703    -0.668271
O     -1.398921     4.891937     0.079492
O     -0.473001     3.737088    -2.144541
O      1.132686     4.630541    -0.364136
C      1.503846     4.841626     1.001448
H      2.299498     4.129354     1.255353
H      0.647913     4.680811     1.670778
C      2.007221     6.264367     1.171126
H      2.302471     6.406914     2.220716
O      3.209116     6.485347     0.396011
C      2.799548     7.101344    -0.839001
H      3.690833     7.574697    -1.263955
H      2.411020     6.340700    -1.524871
C      1.709935     8.082403    -0.419777
H      1.045059     8.352737    -1.247489
H      2.171167     8.998170    -0.029891
C      0.979636     7.315525     0.695934
H      0.080257     6.815753     0.323673
H      0.683339     7.977113     1.517833
