32
Energy = -1142.565576832 Hartree (EUMP2 CORRECTED)
O      1.763948     0.418028    -0.034612
C      1.948982     1.537798    -0.929191
H      2.803628     1.295882    -1.570034
H      2.171525     2.443509    -0.349388
C      0.346760     0.297733     0.248184
H      0.024422    -0.700747    -0.077078
H      0.178608     0.412031     1.323453
C      0.625998     1.676870    -1.661585
H      0.532293     0.895893    -2.428646
H      0.462744     2.657794    -2.112739
C     -0.364236     1.402213    -0.527987
H     -1.353076     1.106488    -0.895911
O     -0.491977     2.517749     0.358075
P     -1.367831     3.858755    -0.192880
O     -1.742901     4.635092     1.042593
O     -2.302571     3.390657    -1.279554
O     -0.117087     4.674410    -0.975681
C      0.810107     5.331640    -0.113498
H      0.359644     6.222034     0.344115
H      1.107595     4.644593     0.693280
C      2.040087     5.722112    -0.916738
H      2.131434     5.030658    -1.763460
O      1.924065     7.050887    -1.498345
C      2.920827     7.891422    -0.910298
H      3.146932     8.683035    -1.631398
H      2.540885     8.353705     0.015862
C      4.083160     6.954878    -0.605425
H      4.802188     7.372420     0.108955
H      4.612862     6.707640    -1.533045
C      3.323924     5.740876    -0.069719
H      3.073927     5.894502     0.988775
H      3.874045     4.797755    -0.147251
