32
Energy = -1142.566653260 Hartree (EUMP2 CORRECTED)
O      1.650234     0.324612     0.627903
C      2.093406     1.476132    -0.113306
H      3.024290     1.192973    -0.615573
H      2.280370     2.318698     0.565565
C      0.205029     0.406332     0.753987
H     -0.204581    -0.550870     0.406213
H     -0.072561     0.578507     1.798622
C      0.934697     1.786358    -1.048098
H      0.905841     1.054120    -1.865826
H      0.943158     2.800877    -1.456985
C     -0.257327     1.584702    -0.115472
H     -1.187881     1.358199    -0.641785
O     -0.372110     2.771343     0.667630
P     -1.802844     3.208867     1.454692
O     -2.109990     4.632380     1.058869
O     -1.735706     2.696119     2.870826
O     -2.886112     2.181025     0.668445
C     -3.473946     2.651853    -0.542946
H     -2.704964     2.898939    -1.288797
H     -4.062611     3.561022    -0.355477
C     -4.355244     1.536784    -1.070062
H     -4.841863     1.871217    -1.997159
O     -3.545856     0.390903    -1.438661
C     -3.672603    -0.577180    -0.382945
H     -3.377285    -1.544191    -0.802304
H     -3.014971    -0.309451     0.453189
C     -5.138108    -0.485337     0.021587
H     -5.337170    -0.916821     1.008870
H     -5.757933    -1.003496    -0.720277
C     -5.373468     1.030655    -0.024718
H     -5.148323     1.479274     0.947230
H     -6.401339     1.289734    -0.301837
