32
Energy = -1142.566102979 Hartree (EUMP2 CORRECTED)
O      1.468461     0.196855     0.097885
C      1.733547     1.618336     0.053372
H      2.785705     1.734442    -0.224170
H      1.554824     2.069744     1.036813
C      0.069604     0.000603    -0.211109
H      0.010548    -0.714727    -1.042554
H     -0.454122    -0.400574     0.662800
C      0.744869     2.157290    -0.966058
H      1.068323     1.896380    -1.983661
H      0.579217     3.235154    -0.895711
C     -0.509647     1.364492    -0.591674
H     -1.237327     1.292474    -1.407216
O     -1.127565     1.891651     0.577817
P     -1.873204     3.398212     0.611861
O     -0.889433     4.400449     1.167852
O     -3.275395     3.214150     1.143384
O     -1.967015     3.620532    -1.067000
C     -3.064437     4.403272    -1.540460
H     -2.736046     5.441243    -1.687949
H     -3.884355     4.379953    -0.809697
C     -3.559744     3.837438    -2.858263
H     -4.447171     4.407638    -3.165878
O     -2.596239     4.029285    -3.921907
C     -1.849354     2.808753    -4.033724
H     -1.375543     2.816056    -5.020698
H     -1.081970     2.768069    -3.252520
C     -2.899246     1.715800    -3.853258
H     -2.467747     0.754705    -3.550726
H     -3.435741     1.568237    -4.798223
C     -3.830082     2.317934    -2.785865
H     -3.587109     1.949268    -1.785195
H     -4.882544     2.089583    -2.985868
