32
Energy = -1142.556805327 Hartree (EUMP2 CORRECTED)
O      1.054023    -0.686415    -0.148857
C      0.165102    -0.623918    -1.290758
H     -0.098412    -1.655974    -1.543336
H      0.678883    -0.154766    -2.138495
C      0.828695     0.492944     0.658653
H      0.520962     0.162744     1.660364
H      1.755842     1.071611     0.729266
C     -1.000785     0.234530    -0.832245
H     -1.667159    -0.340291    -0.174630
H     -1.571809     0.675265    -1.654048
C     -0.264025     1.306543    -0.025777
H     -0.909978     1.844491     0.678696
O      0.381147     2.239121    -0.894894
P     -0.643751     3.379455    -1.629767
O     -1.588508     3.886209    -0.563557
O     -1.127212     2.820744    -2.948585
O      0.536178     4.523037    -1.936569
C      1.888681     4.324363    -1.578643
H      2.005812     4.316086    -0.483839
H      2.271091     3.366863    -1.962040
C      2.722916     5.446702    -2.164002
H      2.545986     5.504214    -3.243161
O      2.336204     6.737517    -1.633123
C      3.267892     7.073152    -0.606435
H      3.188804     8.150964    -0.437264
H      3.024962     6.548411     0.331925
C      4.608096     6.610257    -1.163765
H      5.392422     6.516676    -0.403615
H      4.945887     7.318382    -1.928830
C      4.216511     5.269589    -1.796448
H      4.328583     4.456036    -1.067606
H      4.827213     5.013618    -2.668436
