32
Energy = -1142.566545122 Hartree (EUMP2 CORRECTED)
O      0.598366     0.348174     1.215698
C      1.361954     0.523243    -0.000630
H      1.853954    -0.432316    -0.208473
H      2.123133     1.300051     0.148981
C     -0.588866     1.172475     1.126947
H     -1.464494     0.513197     1.200152
H     -0.597082     1.892695     1.950900
C      0.346460     0.953635    -1.044659
H     -0.239191     0.088927    -1.386124
H      0.757094     1.482757    -1.907653
C     -0.535065     1.888533    -0.219160
H     -1.531413     2.039661    -0.653085
O      0.119767     3.141441    -0.007746
P     -0.096896     4.325811    -1.203521
O     -1.201070     5.253884    -0.746585
O     -0.106546     3.649580    -2.554126
O      1.369735     5.091932    -1.005199
C      2.263096     4.952679     0.095710
H      3.269895     5.077348    -0.322842
H      2.179007     3.953121     0.542300
C      2.054784     6.011064     1.171597
H      2.858833     5.884101     1.912630
O      2.228591     7.336122     0.627447
C      0.905756     7.835160     0.335610
H      0.998010     8.922439     0.244233
H      0.536696     7.402623    -0.599275
C      0.061751     7.373062     1.517244
H     -1.000282     7.308380     1.262309
H      0.195689     8.059885     2.362653
C      0.655939     5.989064     1.827768
H      0.031815     5.206698     1.393821
H      0.734872     5.807774     2.906249
