32
Energy = -1142.571991254 Hartree (EUMP2 CORRECTED)
O      0.380348    -0.574347     0.217368
C      1.344731     0.136024    -0.594291
H      1.977296    -0.620760    -1.068886
H      1.960093     0.785853     0.040800
C     -0.831850     0.214791     0.261175
H     -1.653474    -0.413298    -0.108544
H     -1.035198     0.523103     1.291644
C      0.507513     0.958646    -1.556850
H      0.090951     0.314066    -2.343452
H      1.018419     1.811448    -2.009439
C     -0.608378     1.437518    -0.627980
H     -1.519453     1.735522    -1.163453
O     -0.147270     2.495187     0.214778
P     -0.186236     4.066037    -0.412855
O     -1.451690     4.732314     0.085633
O      0.224216     4.033313    -1.864898
O      1.112929     4.643181     0.450574
C      0.960000     4.842664     1.859103
H      1.645484     4.158584     2.375645
H     -0.071681     4.633984     2.172161
C      1.306791     6.280349     2.205837
H      1.200380     6.411085     3.292403
O      2.695117     6.564496     1.914607
C      2.728632     7.179955     0.613185
H      3.690977     7.696586     0.535900
H      2.646019     6.413751    -0.165092
C      1.518895     8.108738     0.611108
H      1.180153     8.355361    -0.401046
H      1.770694     9.040942     1.131508
C      0.473487     7.303012     1.401854
H     -0.223028     6.779988     0.740323
H     -0.113687     7.943890     2.069230
