32
Energy = -1142.571345099 Hartree (EUMP2 CORRECTED)
O      1.649542     0.212666     0.239439
C      2.063119     1.471734    -0.309821
H      2.927366     1.274435    -0.952328
H      2.349738     2.168091     0.491153
C      0.257307     0.363354     0.645600
H     -0.273542    -0.525976     0.286188
H      0.183208     0.434405     1.733078
C      0.826069     1.971764    -1.039228
H      0.680702     1.392101    -1.960004
H      0.832267     3.040981    -1.271336
C     -0.269479     1.644609    -0.027429
H     -1.246322     1.471734    -0.496061
O     -0.368193     2.779841     0.845613
P     -1.352450     2.735536     2.215098
O     -1.642807     4.177395     2.542638
O     -0.856215     1.702549     3.195714
O     -2.713089     2.034070     1.506429
C     -3.453503     2.854332     0.604534
H     -2.793383     3.288980    -0.158903
H     -3.937105     3.679816     1.148125
C     -4.492428     1.970458    -0.057847
H     -5.103177     2.582410    -0.736474
O     -3.850335     0.975514    -0.894363
C     -3.848312    -0.259848    -0.158746
H     -3.698578    -1.062767    -0.887502
H     -3.034299    -0.257295     0.576329
C     -5.208688    -0.276227     0.526584
H     -5.255149    -0.975944     1.368545
H     -5.983189    -0.549422    -0.200398
C     -5.352959     1.189297     0.960618
H     -4.943460     1.330576     1.964942
H     -6.394705     1.528844     0.955566
