32
Energy = -1142.566801549 Hartree (EUMP2 CORRECTED)
O      0.773950     0.268617    -1.485899
C      1.206159     1.608401    -1.806920
H      1.522644     1.595062    -2.854820
H      2.043297     1.906037    -1.163413
C     -0.000986     0.390736    -0.271546
H     -0.754849    -0.403180    -0.299259
H      0.647397     0.259197     0.599800
C     -0.013754     2.468884    -1.525173
H      0.218742     3.522667    -1.358441
H     -0.731632     2.359161    -2.348154
C     -0.611040     1.812440    -0.266508
H     -1.701944     1.755653    -0.362387
O     -0.435672     2.461893     1.001197
P      0.878552     3.416186     1.430893
O      0.693088     3.713396     2.895830
O      1.141793     4.449497     0.361858
O      2.121324     2.279825     1.256128
C      2.402598     1.499229     2.419073
H      2.712714     2.155411     3.243882
H      1.509923     0.950261     2.748724
C      3.506552     0.509237     2.106454
H      3.822000     0.047938     3.056187
O      3.007506    -0.572843     1.278840
C      3.729838    -0.584138     0.035894
H      3.750941    -1.621143    -0.314789
H      3.204308     0.028855    -0.704671
C      5.096616    -0.008798     0.383675
H      5.643189     0.354836    -0.494274
H      5.708541    -0.769879     0.884840
C      4.704543     1.106778     1.355172
H      4.376342     1.996448     0.808505
H      5.511849     1.393884     2.038383
