32
Energy = -1142.572318270 Hartree (EUMP2 CORRECTED)
O      1.069402     0.237400     0.713239
C      1.689369     1.450259     0.226701
H      2.768226     1.265559     0.202417
H      1.470068     2.285556     0.903745
C     -0.250916     0.145381     0.124420
H     -0.314162    -0.816078    -0.402272
H     -1.010361     0.189682     0.911455
C      1.051819     1.681477    -1.131862
H      1.458611     0.977230    -1.870736
H      1.143103     2.701344    -1.505846
C     -0.402394     1.327085    -0.830816
H     -0.977177     1.087879    -1.732298
O     -1.063036     2.365888    -0.097253
P     -1.459639     3.774582    -0.899153
O     -2.576934     4.449755    -0.148729
O     -1.492677     3.491695    -2.390243
O     -0.015584     4.599420    -0.580668
C     -0.073724     6.008861    -0.822944
H     -0.097738     6.535688     0.139511
H     -0.979973     6.278087    -1.383951
C      1.141493     6.442791    -1.622680
H      1.034492     7.510365    -1.862030
O      2.353894     6.348991    -0.835312
C      2.986220     5.108267    -1.183093
H      4.035039     5.191038    -0.879430
H      2.508613     4.282405    -0.644392
C      2.778812     4.993621    -2.690142
H      2.867013     3.964198    -3.055669
H      3.526880     5.607382    -3.206674
C      1.366064     5.573595    -2.879779
H      0.607647     4.785430    -2.929408
H      1.293020     6.172566    -3.794410
