32
Energy = -1142.574148536 Hartree (EUMP2 CORRECTED)
O      0.892776    -0.292133    -1.101793
C      1.863256     0.778762    -1.060250
H      2.719616     0.450841    -1.657608
H      2.180710     0.960560    -0.025745
C     -0.418999     0.297080    -0.941288
H     -1.039664    -0.045357    -1.779415
H     -0.860898    -0.029549     0.006067
C      1.125058     1.985073    -1.613125
H      1.023797     1.900569    -2.703709
H      1.578268     2.944469    -1.348609
C     -0.240722     1.815014    -0.942717
H     -1.052555     2.338977    -1.462695
O     -0.195299     2.237673     0.424846
P     -0.254976     3.904169     0.672575
O     -1.441646     4.453274    -0.096363
O      1.138087     4.476647     0.542744
O     -0.604911     3.830534     2.294567
C     -1.929036     4.114704     2.753624
H     -2.219078     3.309797     3.441340
H     -2.625889     4.149598     1.906472
C     -1.964757     5.440440     3.495743
H     -3.009653     5.649050     3.766980
O     -1.246099     5.386389     4.742967
C      0.140467     5.685931     4.456419
H      0.530616     6.193094     5.346108
H      0.687146     4.751371     4.295644
C      0.158725     6.558413     3.187664
H      0.791500     6.107502     2.419387
H      0.530045     7.567814     3.401047
C     -1.313282     6.593710     2.728826
H     -1.418837     6.477004     1.645647
H     -1.791136     7.533672     3.030429
