32
Energy = -1142.566595901 Hartree (EUMP2 CORRECTED)
O      1.270739     0.154262     0.363008
C      1.723803     1.255533    -0.454503
H      2.543807     0.874798    -1.071386
H      2.087874     2.074266     0.179768
C     -0.118372     0.399456     0.685905
H     -0.678927    -0.510418     0.436214
H     -0.221161     0.620971     1.753803
C      0.491382     1.686474    -1.229877
H      0.273939     0.956228    -2.022203
H      0.553454     2.697352    -1.642325
C     -0.581754     1.604079    -0.140869
H     -1.594510     1.447872    -0.520779
O     -0.550605     2.734571     0.737242
P     -0.978601     4.305809     0.308976
O     -0.195132     4.686729    -0.932831
O     -1.010929     5.071815     1.598916
O     -2.589201     4.150027    -0.167317
C     -2.963469     3.572072    -1.411766
H     -2.158077     2.980896    -1.858641
H     -3.204981     4.380347    -2.122968
C     -4.204052     2.718865    -1.200472
H     -4.570158     2.381926    -2.180703
O     -3.894605     1.513048    -0.466710
C     -4.194022     1.774957     0.918744
H     -4.285726     0.800764     1.409260
H     -3.383539     2.353615     1.375315
C     -5.494163     2.569324     0.861021
H     -5.670355     3.155458     1.769383
H     -6.337263     1.882686     0.718967
C     -5.293273     3.452205    -0.383089
H     -4.934054     4.444316    -0.097436
H     -6.218031     3.566167    -0.959788
