32
Energy = -1142.569899797 Hartree (EUMP2 CORRECTED)
O      1.166868    -0.213525    -0.219998
C      2.013684     0.948934    -0.074187
H      3.043484     0.609562    -0.223225
H      1.905162     1.370553     0.933178
C     -0.121454     0.236761    -0.702135
H     -0.352129    -0.333406    -1.611291
H     -0.888783     0.052757     0.056986
C      1.507481     1.926010    -1.120547
H      1.835515     1.613754    -2.121310
H      1.793766     2.965175    -0.936252
C     -0.004961     1.734380    -0.981222
H     -0.570532     2.047827    -1.867563
O     -0.506250     2.418578     0.173052
P     -0.702220     4.073646    -0.005123
O     -1.517914     4.355285    -1.249759
O      0.619159     4.779701     0.243786
O     -1.649463     4.194526     1.361944
C     -2.390905     5.407644     1.516269
H     -3.459725     5.160004     1.492958
H     -2.182126     6.113674     0.699919
C     -2.042113     6.045046     2.850063
H     -2.633874     6.965753     2.961311
O     -2.448535     5.185765     3.942585
C     -1.269728     4.489752     4.386012
H     -1.484166     4.117488     5.393133
H     -1.053376     3.653803     3.710779
C     -0.176561     5.548896     4.324403
H      0.831457     5.120051     4.301549
H     -0.257945     6.210256     5.196187
C     -0.527467     6.291347     3.025879
H      0.026618     5.873541     2.178699
H     -0.304439     7.362650     3.088922
