32
Energy = -1142.570551253 Hartree (EUMP2 CORRECTED)
O      0.650247    -0.257632     0.791874
C      1.426289     0.598557    -0.068960
H      2.277128     0.005916    -0.419887
H      1.793248     1.468468     0.493000
C     -0.707388     0.250390     0.792944
H     -1.370173    -0.608672     0.635749
H     -0.930599     0.722969     1.755522
C      0.448601     1.020412    -1.153164
H      0.276240     0.183674    -1.843356
H      0.737606     1.908023    -1.722069
C     -0.814134     1.288365    -0.329598
H     -1.730331     1.190947    -0.921152
O     -0.778276     2.584431     0.279363
P     -1.296090     3.895096    -0.656860
O     -1.615642     4.988207     0.329250
O     -2.202674     3.384785    -1.748827
O      0.157947     4.275504    -1.425281
C      1.253014     4.632545    -0.582004
H      1.734096     3.727293    -0.180943
H      0.916627     5.250777     0.257805
C      2.258034     5.371968    -1.451627
H      1.931565     6.410027    -1.594410
O      3.545193     5.436494    -0.774976
C      4.485570     4.661795    -1.530891
H      5.480664     5.066234    -1.320462
H      4.456734     3.606180    -1.215642
C      4.025479     4.807135    -2.974378
H      4.448170     4.046789    -3.641485
H      4.305803     5.797823    -3.352688
C      2.508385     4.689499    -2.804227
H      2.206246     3.637334    -2.752324
H      1.930447     5.152695    -3.607897
