32
Energy = -1142.571931393 Hartree (EUMP2 CORRECTED)
O      1.798353     0.244576     0.341254
C      2.090148     1.639158     0.587268
H      3.177427     1.749314     0.528164
H      1.743978     1.924939     1.588730
C      0.477701     0.167860    -0.245616
H      0.563761    -0.402409    -1.179675
H     -0.205791    -0.343075     0.440703
C      1.315921     2.387797    -0.483213
H      1.821056     2.289523    -1.453888
H      1.130633     3.441621    -0.256696
C      0.004582     1.599909    -0.493813
H     -0.559382     1.706277    -1.426318
O     -0.825851     1.965217     0.617871
P     -1.700544     3.387776     0.566018
O     -0.777290     4.588762     0.569034
O     -2.850767     3.236096     1.532353
O     -2.260177     3.172853    -1.011388
C     -3.103363     4.195161    -1.540567
H     -2.591663     4.657184    -2.395015
H     -3.307520     4.976577    -0.794236
C     -4.412290     3.574879    -1.996993
H     -5.032678     4.359798    -2.454769
O     -4.168159     2.605721    -3.047099
C     -4.233329     1.303152    -2.441764
H     -4.406764     0.586839    -3.251645
H     -3.287532     1.078074    -1.934150
C     -5.377807     1.417760    -1.443623
H     -5.351169     0.639390    -0.672922
H     -6.335316     1.353298    -1.975657
C     -5.151277     2.823498    -0.869015
H     -4.527449     2.785700     0.030413
H     -6.092244     3.322383    -0.610308
