32
Energy = -1142.573076414 Hartree (EUMP2 CORRECTED)
O      2.232130     0.622535    -0.535675
C      2.197856     1.934192    -1.139683
H      2.944758     1.932705    -1.939572
H      2.453517     2.699170    -0.395092
C      0.919537     0.358053     0.019058
H      0.586704    -0.610106    -0.376321
H      0.977034     0.315253     1.111358
C      0.761050     2.095386    -1.607656
H      0.588127     1.493542    -2.509995
H      0.444604     3.125510    -1.788594
C      0.006654     1.505272    -0.418394
H     -1.000260     1.167111    -0.685317
O     -0.042473     2.460918     0.643407
P     -1.447554     3.362205     0.814813
O     -2.169007     3.382045    -0.519720
O     -1.077530     4.581251     1.614425
O     -2.301896     2.356972     1.856584
C     -3.432949     1.620028     1.391285
H     -3.305157     0.574750     1.705436
H     -3.502148     1.676243     0.296816
C     -4.713738     2.166945     2.000453
H     -5.561657     1.619211     1.564354
O     -4.788708     1.928814     3.418686
C     -4.106428     3.022144     4.077692
H     -4.620627     3.166339     5.034677
H     -3.063724     2.742481     4.257645
C     -4.193887     4.238311     3.137409
H     -3.196594     4.626885     2.917347
H     -4.796586     5.041953     3.577008
C     -4.854686     3.684476     1.858991
H     -4.378756     4.056626     0.946200
H     -5.920776     3.940610     1.829674
