32
Energy = -1142.566867952 Hartree (EUMP2 CORRECTED)
O      1.666625    -0.372363    -0.934937
C      2.379997     0.858674    -1.174517
H      3.163206     0.636730    -1.905199
H      2.832812     1.226043    -0.243911
C      0.475601     0.036707    -0.234921
H     -0.279523    -0.736014    -0.407746
H      0.674634     0.136291     0.839562
C      1.301471     1.814782    -1.664502
H      1.564357     2.866766    -1.539947
H      1.073076     1.595981    -2.715305
C      0.086076     1.426498    -0.798026
H     -0.815523     1.357485    -1.417326
O     -0.302194     2.322156     0.248184
P      0.790734     3.058476     1.304152
O      1.860009     3.759475     0.484091
O      1.116332     2.127243     2.442859
O     -0.282024     4.192863     1.868677
C     -0.719557     5.215015     0.970871
H     -1.796668     5.085530     0.804839
H     -0.191100     5.143150     0.010731
C     -0.449621     6.577432     1.586210
H     -0.791443     7.349394     0.881800
O     -1.232992     6.774543     2.785461
C     -0.391927     6.404687     3.894782
H     -0.831339     6.863717     4.786499
H     -0.370804     5.315041     4.001080
C      0.981369     6.955671     3.522209
H      1.794957     6.432053     4.035688
H      1.033672     8.020033     3.781853
C      1.028603     6.760295     1.995733
H      1.607645     5.875872     1.714987
H      1.470509     7.627455     1.491948
