32
Energy = -1142.566591890 Hartree (EUMP2 CORRECTED)
O      1.601395     0.166046     0.573625
C      1.753005     1.079626    -0.536880
H      2.541534     0.670672    -1.176134
H      2.044661     2.073210    -0.174976
C      0.235479     0.264408     1.039538
H     -0.181428    -0.751223     1.055955
H      0.213545     0.692074     2.047287
C      0.376914     1.131791    -1.177652
H      0.186012     0.214622    -1.752160
H      0.221038     2.008512    -1.811026
C     -0.515579     1.174487     0.065406
H     -1.537412     0.827369    -0.129213
O     -0.534702     2.477870     0.640847
P     -1.315643     3.758465    -0.130145
O     -0.284926     4.492656    -0.957678
O     -2.237157     4.411589     0.867566
O     -2.219917     2.863172    -1.238613
C     -3.644663     2.929837    -1.242866
H     -3.997054     3.708271    -0.557436
H     -4.045717     1.955993    -0.911414
C     -4.130170     3.201544    -2.658023
H     -5.211994     3.008533    -2.693129
O     -3.969208     4.571932    -3.047760
C     -2.621292     4.732629    -3.555622
H     -2.684577     5.500087    -4.334770
H     -1.956169     5.069436    -2.755751
C     -2.187202     3.353062    -4.088120
H     -1.267423     3.041757    -3.589358
H     -2.013599     3.370296    -5.170694
C     -3.354859     2.416325    -3.722490
H     -3.009220     1.445895    -3.350322
H     -4.005342     2.247357    -4.589261
