32
Energy = -1142.566859770 Hartree (EUMP2 CORRECTED)
O      2.076106     0.589055    -0.966776
C      1.540995     1.510373    -1.945223
H      1.806634     1.114636    -2.930636
H      1.988887     2.503278    -1.812775
C      1.211305     0.620778     0.194528
H      0.864337    -0.404539     0.379853
H      1.770867     0.986435     1.061450
C      0.050476     1.552706    -1.657870
H     -0.433993     0.636418    -2.022408
H     -0.456666     2.429841    -2.066354
C      0.052880     1.560999    -0.128503
H     -0.901024     1.242799     0.306017
O      0.407060     2.851779     0.382523
P     -0.781474     4.030433     0.427578
O     -0.295193     5.125619     1.348019
O     -2.123864     3.345164     0.539056
O     -0.599474     4.596412    -1.156733
C     -0.584775     6.017196    -1.306121
H     -0.802913     6.218567    -2.360924
H     -1.365839     6.474614    -0.686403
C      0.775297     6.618700    -0.966403
H      1.402438     5.840055    -0.510460
O      1.410118     7.088691    -2.185354
C      2.537910     7.849883    -1.742816
H      3.401562     7.181243    -1.605250
H      2.774462     8.568227    -2.534052
C      2.130203     8.505740    -0.399516
H      2.069855     9.596743    -0.478357
H      2.860409     8.270920     0.382631
C      0.765813     7.865705    -0.092881
H     -0.052779     8.520781    -0.417862
H      0.611622     7.603451     0.957023
