32
Energy = -1142.568806322 Hartree (EUMP2 CORRECTED)
O      0.872210     0.874914    -2.097079
C      1.867346     1.917535    -2.193068
H      1.846591     2.276452    -3.226617
H      2.858507     1.491250    -1.983876
C      0.475277     0.866774    -0.710705
H     -0.436725     0.269693    -0.638096
H      1.259863     0.443397    -0.076757
C      1.484599     2.979174    -1.148849
H      2.274026     3.121067    -0.405899
H      1.239952     3.948344    -1.596574
C      0.271035     2.361581    -0.425922
H     -0.662455     2.675029    -0.909637
O      0.160737     2.804175     0.926071
P      0.936399     2.003248     2.183574
O      0.718990     2.877374     3.394084
O      2.272898     1.476501     1.720647
O     -0.064836     0.661191     2.304341
C     -1.408214     0.874535     2.744417
H     -2.087210     0.610731     1.921899
H     -1.565370     1.924922     3.023893
C     -1.688947    -0.014846     3.943009
H     -2.731985     0.138473     4.255794
O     -1.592375    -1.412564     3.581108
C     -0.273760    -1.850152     3.959413
H     -0.309307    -2.943213     4.012176
H      0.455968    -1.529796     3.207915
C     -0.028117    -1.165987     5.299642
H      1.036794    -1.089791     5.545283
H     -0.530790    -1.727865     6.096498
C     -0.686046     0.209231     5.096366
H      0.045071     0.971246     4.811394
H     -1.196956     0.555456     6.001914
