32
Energy = -1142.565061947 Hartree (EUMP2 CORRECTED)
O      2.068348     0.649847    -1.031360
C      2.648122     1.869536    -0.541757
H      3.612901     1.989365    -1.044845
H      2.790200     1.809409     0.544902
C      0.648194     0.727179    -0.761250
H      0.135755     0.392269    -1.671699
H      0.395503     0.076851     0.076779
C      1.606441     2.916536    -0.908089
H      1.616781     3.077736    -1.994663
H      1.710637     3.873379    -0.388408
C      0.317937     2.209408    -0.476056
H     -0.552128     2.529143    -1.064770
O      0.036243     2.597202     0.875289
P      0.018285     1.615100     2.235352
O     -0.164753     2.577243     3.384509
O      1.090930     0.559691     2.155307
O     -1.436609     0.814864     1.976530
C     -2.637050     1.587959     2.041029
H     -3.104764     1.584600     1.046832
H     -2.418883     2.622167     2.339278
C     -3.583615     0.961498     3.050234
H     -4.511124     1.551901     3.073557
O     -3.978348    -0.366542     2.632019
C     -3.121042    -1.292753     3.325370
H     -3.618845    -2.267367     3.289912
H     -2.147098    -1.345228     2.826893
C     -2.997213    -0.703470     4.726101
H     -2.109901    -1.063879     5.257990
H     -3.886252    -0.963552     5.313814
C     -2.944160     0.808256     4.448063
H     -1.916664     1.182761     4.430321
H     -3.497968     1.381331     5.200295
