32
Energy = -1142.567991935 Hartree (EUMP2 CORRECTED)
O      0.366580     0.489584    -1.545763
C      0.802301     1.849194    -1.749284
H      1.026114     1.955006    -2.816264
H      1.699169     2.043845    -1.151560
C     -0.570581     0.468781    -0.439707
H     -1.495944     0.006258    -0.808997
H     -0.179423    -0.124406     0.388149
C     -0.369284     2.695173    -1.272577
H     -0.103933     3.723781    -1.011791
H     -1.161631     2.701156    -2.033833
C     -0.841190     1.926695    -0.035398
H     -1.914166     2.071147     0.147498
O     -0.182377     2.438745     1.126426
P      0.876015     1.616498     2.123408
O      0.267921     0.307963     2.590099
O      1.427879     2.664578     3.053573
O      2.048925     1.253297     0.972819
C      2.566584    -0.072446     0.835479
H      1.968035    -0.773670     1.432774
H      2.492794    -0.343723    -0.225365
C      4.017606    -0.128007     1.278063
H      4.352885    -1.173158     1.213478
O      4.885102     0.608672     0.393041
C      4.899116     1.981947     0.844568
H      5.892132     2.373158     0.595032
H      4.135065     2.550118     0.303465
C      4.601548     1.961696     2.354378
H      3.744156     2.594912     2.595385
H      5.467400     2.298284     2.937095
C      4.266926     0.487943     2.657460
H      3.398134     0.395666     3.317155
H      5.118140    -0.019216     3.127863
