32
Energy = -1142.565836281 Hartree (EUMP2 CORRECTED)
O      0.664513    -0.674154    -1.325739
C      1.457785     0.223379    -2.149245
H      0.950269     0.324425    -3.118313
H      2.437619    -0.238096    -2.316182
C      0.171530     0.073739    -0.196332
H     -0.831900    -0.295049     0.036912
H      0.824685    -0.053718     0.677618
C      1.536202     1.548734    -1.400318
H      1.633170     2.414927    -2.061205
H      2.364556     1.568671    -0.686219
C      0.213254     1.533347    -0.628623
H     -0.614788     1.749313    -1.322493
O      0.071198     2.371399     0.509552
P      1.075353     3.715989     0.714393
O      0.738276     4.711480    -0.380009
O      2.484201     3.275248     1.020177
O      0.394737     4.193337     2.151164
C     -0.933556     4.724536     2.128672
H     -1.577527     4.052130     2.709687
H     -1.308791     4.791365     1.098801
C     -0.936518     6.109831     2.752372
H     -1.965004     6.497872     2.728465
O     -0.576667     6.053680     4.151804
C      0.837774     6.316160     4.226420
H      1.046177     6.612967     5.259604
H      1.400063     5.411801     3.971434
C      1.066944     7.423079     3.201479
H      2.102751     7.455861     2.846815
H      0.820574     8.394443     3.647304
C      0.073668     7.066054     2.080535
H      0.566162     6.564020     1.242909
H     -0.430657     7.957052     1.689778
