32
Energy = -1142.572292876 Hartree (EUMP2 CORRECTED)
O      1.421883    -0.089997     0.214698
C      1.998776     0.934136    -0.624235
H      2.820930     0.465964    -1.174634
H      2.387459     1.754163    -0.006144
C      0.028194     0.245971     0.423660
H     -0.566166    -0.633963     0.147000
H     -0.141222     0.493897     1.476482
C      0.844400     1.413195    -1.487330
H      0.620929     0.669725    -2.264575
H      0.994076     2.396432    -1.939477
C     -0.288319     1.452599    -0.460220
H     -1.286758     1.409220    -0.908453
O     -0.184426     2.624222     0.360645
P     -0.963697     4.006558    -0.151088
O     -0.994415     4.975060     1.006432
O     -2.186257     3.629733    -0.961058
O      0.244833     4.509080    -1.224768
C     -0.034804     5.728195    -1.918573
H     -0.916455     6.236034    -1.506077
H     -0.226734     5.513011    -2.977534
C      1.180503     6.626933    -1.755218
H      2.040640     6.184046    -2.271793
O      0.928732     7.901942    -2.410165
C      0.607228     8.845279    -1.376914
H      0.765262     9.843728    -1.796385
H     -0.446887     8.744782    -1.075818
C      1.537198     8.472981    -0.232173
H      1.217096     8.882622     0.732589
H      2.546883     8.842143    -0.450693
C      1.479418     6.939813    -0.275473
H      0.677821     6.543659     0.358837
H      2.412969     6.474738     0.056154
