32
Energy = -1142.565587838 Hartree (EUMP2 CORRECTED)
O      1.310412     0.362244     0.486225
C      1.872009     1.544819    -0.131671
H      2.906403     1.302780    -0.395738
H      1.856666     2.382176     0.577248
C     -0.107975     0.340676     0.196044
H     -0.331397    -0.609502    -0.307466
H     -0.676587     0.409351     1.129044
C      0.964665     1.829230    -1.314914
H      1.161017     1.111981    -2.123990
H      1.037576     2.850268    -1.697313
C     -0.405757     1.539356    -0.701290
H     -1.177635     1.338427    -1.452154
O     -0.838518     2.604731     0.158862
P     -1.439344     3.982437    -0.561812
O     -2.200176     4.767914     0.476520
O     -1.998799     3.635655    -1.928088
O      0.061543     4.727359    -0.798454
C     -0.022673     6.107599    -1.103720
H     -0.901743     6.313047    -1.732255
H     -0.130282     6.705400    -0.185855
C      1.249467     6.526025    -1.829813
H      2.104950     6.473213    -1.148087
O      1.573566     5.663173    -2.927906
C      0.631810     5.987272    -3.963077
H      1.095515     5.696825    -4.910159
H     -0.286291     5.403807    -3.820555
C      0.382317     7.509548    -3.839450
H     -0.689691     7.730964    -3.821168
H      0.817996     8.059907    -4.680053
C      1.064239     7.889226    -2.504459
H      0.465089     8.582557    -1.902382
H      2.042346     8.348302    -2.683755
