32
Energy = -1142.564758842 Hartree (EUMP2 CORRECTED)
O      1.749549     0.886447     1.125889
C      2.134969     1.370046    -0.176173
H      2.989934     0.767665    -0.499804
H      2.439647     2.423427    -0.107735
C      0.324170     1.108937     1.280886
H     -0.129440     0.144408     1.541862
H      0.147972     1.832697     2.082408
C      0.884149     1.205040    -1.023581
H      0.740256     0.142389    -1.261430
H      0.857456     1.772766    -1.955330
C     -0.203904     1.651045    -0.049603
H     -1.182671     1.242512    -0.318732
O     -0.299692     3.074317     0.084762
P     -1.330944     3.917109    -0.972800
O     -2.201799     4.822881    -0.144106
O     -1.841847     2.897188    -1.968755
O     -0.237141     4.937948    -1.720927
C      1.133887     4.684461    -1.962532
H      1.307682     4.701851    -3.047604
H      1.442780     3.713006    -1.565222
C      1.966305     5.767669    -1.292276
H      3.027658     5.582390    -1.516262
O      1.666496     7.064826    -1.852027
C      0.720827     7.692363    -0.961838
H      0.749092     8.764298    -1.182492
H     -0.282743     7.290495    -1.136369
C      1.228338     7.323858     0.426792
H      0.452695     7.410484     1.194975
H      2.070216     7.973291     0.697254
C      1.693702     5.872739     0.225709
H      0.911616     5.168813     0.520679
H      2.593536     5.642945     0.808171
