32
Energy = -1142.567306671 Hartree (EUMP2 CORRECTED)
O      1.356308     0.146192     0.306442
C      1.892432     1.367566    -0.245086
H      2.919963     1.150413    -0.554422
H      1.894474     2.157983     0.517227
C     -0.080989     0.174453     0.119753
H     -0.363630    -0.761154    -0.379059
H     -0.581153     0.245667     1.090937
C      0.943086     1.716681    -1.378303
H      1.116073     1.052237    -2.235945
H      0.984180     2.758836    -1.698866
C     -0.406579     1.401848    -0.732416
H     -1.200787     1.223330    -1.464854
O     -0.803625     2.446862     0.162255
P     -1.614307     3.764387    -0.475701
O     -2.376715     4.417123     0.645308
O     -2.230136     3.366233    -1.804654
O     -0.234197     4.685536    -0.822427
C     -0.463564     5.784670    -1.700916
H     -1.001888     6.573707    -1.155049
H     -1.067615     5.480418    -2.567683
C      0.884361     6.310399    -2.173696
H      0.723669     7.318056    -2.584666
O      1.837601     6.473886    -1.111796
C      2.709064     5.334890    -1.153954
H      3.615274     5.608974    -0.604761
H      2.223985     4.480150    -0.669519
C      2.930946     5.094814    -2.646796
H      3.285363     4.081352    -2.868499
H      3.670682     5.810218    -3.025645
C      1.536920     5.387006    -3.228650
H      0.954799     4.464012    -3.323414
H      1.580666     5.861807    -4.214397
