32
Energy = -1142.568203342 Hartree (EUMP2 CORRECTED)
O      1.577244     0.458140     0.605964
C      1.991433     1.366377    -0.439935
H      2.771383     0.853684    -1.011573
H      2.395918     2.287620    -0.001857
C      0.198057     0.760376     0.929066
H     -0.372259    -0.174163     0.848979
H      0.135625     1.145859     1.951869
C      0.717322     1.654248    -1.213899
H      0.446822     0.790737    -1.836791
H      0.751670     2.551610    -1.836131
C     -0.285984     1.812136    -0.070493
H     -1.322838     1.658429    -0.389358
O     -0.143809     3.089995     0.555526
P     -0.821209     4.422762    -0.233210
O     -1.628509     3.921917    -1.413781
O      0.251294     5.475562    -0.319141
O     -1.873128     4.865905     0.998505
C     -3.277357     4.894813     0.763913
H     -3.520845     4.367251    -0.164403
H     -3.610713     5.943193     0.679570
C     -3.975423     4.240377     1.943419
H     -5.063057     4.325095     1.802610
O     -3.689964     2.823376     1.980152
C     -2.661912     2.623765     2.967633
H     -2.691957     1.564287     3.243028
H     -1.683149     2.878387     2.546012
C     -3.056502     3.573115     4.092382
H     -2.230586     3.789251     4.779583
H     -3.885737     3.141057     4.666057
C     -3.517847     4.809325     3.306971
H     -2.680366     5.495995     3.153060
H     -4.325517     5.351378     3.812095
