32
Energy = -1142.572874020 Hartree (EUMP2 CORRECTED)
O      0.818150     0.204482     1.051253
C      1.684892     0.929694     0.146350
H      2.478390     0.238200    -0.154336
H      2.121781     1.795199     0.659117
C     -0.527179     0.710740     0.884518
H     -1.169806    -0.129941     0.589047
H     -0.880922     1.130683     1.832051
C      0.775956     1.382739    -0.982954
H      0.546304     0.543436    -1.653511
H      1.176170     2.221660    -1.558815
C     -0.473680     1.785334    -0.196257
H     -1.380284     1.828317    -0.812011
O     -0.273932     3.038248     0.460267
P     -0.346283     4.418366    -0.535664
O     -1.455702     4.215581    -1.537803
O      1.075402     4.782998    -0.900867
O     -0.914783     5.447811     0.639918
C     -0.107229     5.638744     1.806101
H      0.435870     6.587940     1.713613
H      0.620500     4.824227     1.920730
C     -1.019109     5.674852     3.019556
H     -0.400103     5.814156     3.917396
O     -1.900903     6.821381     2.972467
C     -3.162900     6.356480     2.460996
H     -3.909883     7.108092     2.736057
H     -3.110555     6.253602     1.371309
C     -3.353970     5.004364     3.138391
H     -4.075736     4.366033     2.616537
H     -3.701344     5.155964     4.167861
C     -1.929136     4.429273     3.115747
H     -1.771960     3.796168     2.238585
H     -1.705225     3.839555     4.012070
