32
Energy = -1142.564764675 Hartree (EUMP2 CORRECTED)
O      1.508040     0.199510     0.095750
C      1.756690     1.617487     0.229257
H      2.838653     1.757565     0.144476
H      1.409529     1.973675     1.207006
C      0.177256     0.037066    -0.447168
H      0.258439    -0.603855    -1.335260
H     -0.475185    -0.434761     0.294661
C      0.944630     2.248886    -0.888530
H      1.437590     2.075752    -1.855607
H      0.754066     3.317136    -0.760355
C     -0.346591     1.432639    -0.796186
H     -0.930203     1.431547    -1.722366
O     -1.141735     1.861970     0.300451
P     -2.049570     3.276067     0.314466
O     -1.436187     4.206103     1.331286
O     -3.515326     2.899152     0.301521
O     -1.652814     3.816950    -1.244718
C     -2.654118     4.593809    -1.910044
H     -2.305298     5.633207    -1.972535
H     -3.597116     4.556449    -1.349674
C     -2.905118     4.067447    -3.311109
H     -3.724426     4.653925    -3.750335
O     -1.768728     4.293638    -4.181189
C     -1.027455     3.066502    -4.230596
H     -0.395622     3.112134    -5.123700
H     -0.399429     2.974701    -3.337480
C     -2.103711     1.986098    -4.281199
H     -1.737573     1.000963    -3.969683
H     -2.482380     1.900920    -5.306956
C     -3.186448     2.549611    -3.344730
H     -3.113661     2.138773    -2.333734
H     -4.195809     2.340985    -3.715510
