32
Energy = -1142.564927858 Hartree (EUMP2 CORRECTED)
O      1.740723     0.391686     0.046292
C      1.917874     1.522480    -0.838293
H      2.738068     1.267699    -1.517044
H      2.181314     2.416165    -0.258317
C      0.344307     0.341906     0.428583
H     -0.039023    -0.650885     0.157867
H      0.251515     0.494690     1.508617
C      0.568023     1.699944    -1.510168
H      0.417872     0.922218    -2.271652
H      0.415242     2.687625    -1.951478
C     -0.374738     1.454476    -0.331051
H     -1.389698     1.183677    -0.641600
O     -0.425804     2.590932     0.540971
P     -1.407197     3.870647     0.097858
O     -1.626118     4.730041     1.318805
O     -2.518575     3.344333    -0.783997
O     -0.263668     4.650142    -0.880132
C     -0.366111     6.063031    -0.964351
H     -1.187946     6.361484    -1.636166
H     -0.561338     6.477132     0.035039
C      0.936602     6.620651    -1.496892
H      1.763255     6.073004    -1.029590
O      1.078675     6.411621    -2.928022
C      0.931142     7.677584    -3.573642
H      1.418781     7.603595    -4.550403
H     -0.134566     7.916211    -3.726459
C      1.574169     8.667731    -2.610900
H      1.300000     9.710600    -2.808498
H      2.665058     8.575375    -2.665553
C      1.046810     8.142216    -1.273409
H      0.053132     8.563599    -1.070160
H      1.688259     8.382608    -0.419904
