32
Energy = -1142.555884543 Hartree (EUMP2 CORRECTED)
O      1.670830     0.722901    -0.664851
C      2.092151     2.109843    -0.618768
H      3.026045     2.186688    -1.186662
H      2.254939     2.399994     0.425895
C      0.234223     0.690197    -0.807454
H     -0.014775     0.381916    -1.836493
H     -0.167009    -0.033748    -0.103731
C      0.930380     2.885827    -1.225088
H      0.930784     2.799696    -2.321036
H      0.908624     3.939916    -0.934747
C     -0.255501     2.124389    -0.620559
H     -1.195127     2.285690    -1.168504
O     -0.441452     2.629332     0.692382
P     -0.265377     2.058359     2.263994
O     -1.561168     2.354645     2.980515
O      1.098602     2.494008     2.740390
O     -0.150573     0.400968     2.032941
C     -1.321768    -0.396723     2.187282
H     -1.968666    -0.316924     1.299603
H     -1.899508    -0.065798     3.060492
C     -0.856667    -1.831572     2.349666
H     -1.734207    -2.477193     2.497226
O     -0.222170    -2.297360     1.134414
C      1.204133    -2.208073     1.337825
H      1.666240    -2.870976     0.599373
H      1.543820    -1.178677     1.179899
C      1.389247    -2.652445     2.783316
H      2.348613    -2.333726     3.205788
H      1.323894    -3.745891     2.845461
C      0.188584    -1.990431     3.476074
H      0.465966    -1.003446     3.857149
H     -0.199975    -2.591207     4.306112
