32
Energy = -1142.563035679 Hartree (EUMP2 CORRECTED)
O      1.102073    -0.560142     0.095861
C      0.246496    -0.628577    -1.070202
H      0.117065    -1.689708    -1.306337
H      0.724353    -0.117254    -1.914865
C      0.713637     0.600633     0.868658
H      0.421017     0.256428     1.870078
H      1.560587     1.290101     0.947173
C     -1.027548     0.091073    -0.664105
H     -1.638116    -0.547556    -0.011115
H     -1.621608     0.443600    -1.511667
C     -0.449824     1.261002     0.136712
H     -1.175141     1.726410     0.816046
O      0.101586     2.250829    -0.732512
P     -1.026601     3.252562    -1.518671
O     -2.030333     3.746915    -0.508717
O     -1.415437     2.556234    -2.808363
O      0.044026     4.483510    -1.857745
C      1.310417     4.098120    -2.372960
H      1.944373     3.716424    -1.560075
H      1.198998     3.303240    -3.127147
C      1.975915     5.293518    -3.022352
H      1.301902     5.723657    -3.770652
O      2.225918     6.352890    -2.064001
C      3.601687     6.279187    -1.693003
H      3.870791     7.244674    -1.254549
H      3.764372     5.490089    -0.940658
C      4.315677     5.947636    -2.996980
H      5.334454     5.568022    -2.856586
H      4.360081     6.845003    -3.624499
C      3.360786     4.909052    -3.596126
H      3.636425     3.900428    -3.261141
H      3.364741     4.903388    -4.690971
