32
Energy = -1142.563769961 Hartree (EUMP2 CORRECTED)
O      1.564555     0.234563     0.214466
C      2.020204     1.439795    -0.440252
H      2.953555     1.187452    -0.953446
H      2.208167     2.224431     0.304300
C      0.120098     0.301775     0.304538
H     -0.280395    -0.616331    -0.144346
H     -0.183953     0.366321     1.354282
C      0.875191     1.832525    -1.356908
H      0.848646     1.168041    -2.231424
H      0.889550     2.875551    -1.681113
C     -0.327287     1.551130    -0.454197
H     -1.262169     1.406871    -1.006689
O     -0.500288     2.598229     0.510945
P     -1.452223     3.900788     0.083716
O     -1.742337     4.681538     1.338802
O     -2.516418     3.453939    -0.899344
O     -0.257434     4.711378    -0.806200
C     -0.746599     5.750009    -1.645879
H     -1.428854     5.352521    -2.410439
H     -1.294786     6.485087    -1.034680
C      0.438186     6.431275    -2.309227
H      1.309050     6.300930    -1.655705
O      0.791957     5.808402    -3.575823
C      0.549512     6.752488    -4.622417
H      1.202986     6.487403    -5.459204
H     -0.498868     6.697181    -4.959642
C      0.840783     8.107351    -3.989045
H      0.429714     8.950236    -4.556796
H      1.924277     8.243956    -3.892393
C      0.189056     7.917389    -2.618374
H     -0.889402     8.112832    -2.688832
H      0.594066     8.566112    -1.835585
