32
Energy = -1142.572737957 Hartree (EUMP2 CORRECTED)
O      1.604424     0.230382     0.317719
C      2.016861     1.464956    -0.288366
H      2.887641     1.240602    -0.913092
H      2.294382     2.199155     0.480976
C      0.195837     0.366452     0.664435
H     -0.309278    -0.538419     0.305260
H      0.072161     0.457055     1.746204
C      0.786014     1.926756    -1.052711
H      0.654088     1.311376    -1.952058
H      0.790360     2.986080    -1.326441
C     -0.319640     1.631144    -0.042907
H     -1.296308     1.469880    -0.512774
O     -0.385746     2.763404     0.834471
P     -1.628867     2.847944     1.973474
O     -1.755308     4.307578     2.324854
O     -1.499287     1.712565     2.958514
O     -2.912954     2.394432     0.980076
C     -3.320571     3.332992    -0.012874
H     -2.466683     3.637804    -0.634381
H     -3.740173     4.233811     0.459582
C     -4.361511     2.643888    -0.873695
H     -4.717902     3.346850    -1.639741
O     -3.763966     1.539380    -1.598140
C     -4.118910     0.332198    -0.902005
H     -3.985551    -0.492185    -1.609658
H     -3.465782     0.195141    -0.031429
C     -5.562229     0.569364    -0.476234
H     -5.885913    -0.099709     0.328844
H     -6.227098     0.430162    -1.337374
C     -5.519590     2.042494    -0.046050
H     -5.283103     2.120979     1.018938
H     -6.465119     2.563048    -0.234567
