32
Energy = -1142.569896486 Hartree (EUMP2 CORRECTED)
O      1.593629    -0.011337    -0.577821
C      1.529359     0.924338    -1.677909
H      1.912375     0.401956    -2.560454
H      2.158721     1.798154    -1.465971
C      0.515837     0.301132     0.338170
H     -0.092963    -0.604882     0.457471
H      0.930011     0.600994     1.306111
C      0.065853     1.321645    -1.760867
H     -0.522939     0.511990    -2.213480
H     -0.113498     2.255992    -2.297776
C     -0.285192     1.445453    -0.277594
H     -1.361224     1.378106    -0.084234
O      0.227175     2.661802     0.280853
P     -0.625363     4.078064    -0.006978
O     -0.151779     5.087948     1.011149
O     -2.069112     3.716929    -0.264098
O      0.102949     4.464266    -1.482305
C      0.514715     5.814509    -1.694772
H      0.004707     6.487080    -0.998320
H      0.217700     6.082222    -2.716089
C      2.040101     6.014864    -1.534567
H      2.515061     5.974548    -2.522470
O      2.306878     7.347069    -1.044921
C      2.234853     7.238076     0.394369
H      2.731528     8.126630     0.796254
H      1.189918     7.212177     0.723152
C      2.922886     5.914923     0.734396
H      2.449435     5.440515     1.597817
H      3.986968     6.075551     0.945334
C      2.735572     5.066534    -0.544259
H      2.145380     4.168003    -0.361676
H      3.706057     4.762239    -0.953554
