32
Energy = -1142.571809050 Hartree (EUMP2 CORRECTED)
O      1.482262    -0.229144     0.944299
C      2.298220     0.874139     0.520471
H      3.316666     0.491192     0.401120
H      2.289218     1.673648     1.274652
C      0.108243     0.104079     0.607432
H     -0.341458    -0.790015     0.163229
H     -0.442304     0.380429     1.511514
C      1.633249     1.340130    -0.765472
H      1.841276     0.622076    -1.569194
H      1.916589     2.346831    -1.086688
C      0.158294     1.288804    -0.373446
H     -0.521167     1.141791    -1.219418
O     -0.136503     2.525636     0.279623
P     -1.751982     2.821589     0.676875
O     -1.785120     3.182881     2.145003
O     -2.603321     1.753735     0.034744
O     -1.979945     4.218518    -0.210161
C     -1.328756     5.412880     0.229381
H     -0.607328     5.713206    -0.541957
H     -0.802436     5.243479     1.178336
C     -2.361777     6.510024     0.421456
H     -1.843036     7.423801     0.745590
O     -2.998732     6.849528    -0.832546
C     -4.228622     6.102354    -0.888301
H     -4.860450     6.594682    -1.634930
H     -4.024398     5.068389    -1.186127
C     -4.771301     6.174683     0.535192
H     -5.474338     5.364733     0.758222
H     -5.284155     7.132753     0.684663
C     -3.493247     6.096295     1.388333
H     -3.313418     5.083962     1.761199
H     -3.539304     6.769742     2.251604
