32
Energy = -1142.567978104 Hartree (EUMP2 CORRECTED)
O      0.454994     0.102653    -2.021593
C      1.602830     0.958002    -2.229073
H      1.939324     0.788286    -3.256234
H      2.392793     0.698342    -1.516132
C     -0.145457     0.613417    -0.819887
H     -1.170263     0.232926    -0.780506
H      0.415011     0.288966     0.065691
C      1.089141     2.370899    -1.954763
H      1.861032     3.026752    -1.547242
H      0.688150     2.818706    -2.871996
C     -0.059555     2.146247    -0.941303
H     -0.994853     2.533757    -1.361719
O      0.026423     2.798892     0.324509
P      1.439522     2.803827     1.242923
O      1.734908     4.246608     1.583791
O      2.436286     1.845717     0.637104
O      0.843475     2.045342     2.606794
C     -0.070914     2.761860     3.439872
H     -1.036533     2.239824     3.417339
H     -0.202307     3.791112     3.079812
C      0.463939     2.792956     4.861329
H     -0.257420     3.329833     5.494265
O      0.546691     1.458031     5.412952
C      1.904657     1.015733     5.228435
H      2.061005     0.185600     5.925134
H      2.050966     0.678378     4.196778
C      2.741473     2.253707     5.533102
H      3.740226     2.206677     5.085497
H      2.850521     2.365293     6.618904
C      1.886159     3.390071     4.946791
H      2.227941     3.683652     3.950217
H      1.901735     4.281464     5.584069
