32
Energy = -1142.568181419 Hartree (EUMP2 CORRECTED)
O      1.656107     0.011933     0.761862
C      1.789642     0.300526    -0.654416
H      1.273592    -0.493698    -1.211825
H      2.854311     0.270015    -0.912237
C      0.834271     1.037738     1.352887
H      0.194843     0.565893     2.104785
H      1.453644     1.809187     1.830026
C      1.151436     1.665567    -0.883190
H      0.758918     1.786537    -1.896017
H      1.848851     2.486562    -0.696353
C      0.067038     1.670498     0.197907
H     -0.766914     1.021595    -0.114091
O     -0.467183     2.909956     0.637125
P     -0.707446     4.191927    -0.410058
O      0.550563     4.503843    -1.192634
O     -1.473558     5.214999     0.385334
O     -1.782801     3.407527    -1.450686
C     -1.555971     3.416541    -2.860395
H     -1.672148     2.384878    -3.221806
H     -0.538002     3.768669    -3.075835
C     -2.566999     4.296974    -3.576036
H     -2.296978     4.327288    -4.641481
O     -3.896595     3.744248    -3.532327
C     -4.505308     4.188421    -2.297057
H     -5.579717     4.263139    -2.499009
H     -4.328621     3.441022    -1.516918
C     -3.846879     5.530690    -1.932115
H     -3.432150     5.503605    -0.921444
H     -4.562357     6.358712    -2.000601
C     -2.712143     5.692327    -2.963226
H     -1.784453     6.042876    -2.499823
H     -2.996591     6.399667    -3.751605
