32
Energy = -1142.571035380 Hartree (EUMP2 CORRECTED)
O      1.062942     0.102239     0.691468
C      1.694937     0.912837    -0.324805
H      2.418161     0.271496    -0.838771
H      2.217480     1.758400     0.140451
C     -0.281852     0.598999     0.878224
H     -0.972382    -0.239776     0.715862
H     -0.395115     0.981729     1.897964
C      0.551194     1.399658    -1.194418
H      0.187681     0.581439    -1.832052
H      0.790611     2.277937    -1.798317
C     -0.508899     1.722673    -0.135526
H     -1.530182     1.728593    -0.537213
O     -0.251543     2.952445     0.555650
P     -0.401497     4.421930    -0.247689
O      0.388801     4.406086    -1.540953
O     -0.281607     5.473693     0.817761
O     -2.035176     4.279661    -0.661215
C     -2.406316     4.120586    -2.025048
H     -1.741591     3.417385    -2.539845
H     -2.354147     5.084116    -2.558143
C     -3.831964     3.601486    -2.042416
H     -4.162527     3.500287    -3.086076
O     -3.887838     2.267124    -1.479184
C     -4.390805     2.390059    -0.137823
H     -4.766431     1.403360     0.151505
H     -3.584960     2.702375     0.537861
C     -5.464982     3.464342    -0.249934
H     -5.729225     3.907874     0.716569
H     -6.369199     3.034774    -0.698182
C     -4.799843     4.466218    -1.203980
H     -4.226821     5.206348    -0.637884
H     -5.525108     4.991396    -1.835620
