32
Energy = -1142.563991778 Hartree (EUMP2 CORRECTED)
O      1.568905     0.344075    -0.621863
C      1.745167     1.728259    -1.002618
H      2.525661     1.758706    -1.770885
H      2.070664     2.308719    -0.130853
C      0.154261     0.099976    -0.386258
H     -0.216218    -0.566663    -1.179397
H      0.017199    -0.363082     0.590987
C      0.374809     2.176391    -1.489132
H      0.189631     1.815589    -2.510289
H      0.224039     3.259011    -1.448407
C     -0.540705     1.453989    -0.502848
H     -1.562558     1.324868    -0.890049
O     -0.609489     2.263049     0.667329
P     -0.679024     1.812329     2.290425
O     -0.877624     0.313907     2.403129
O     -1.540812     2.849223     2.955344
O      0.893372     2.179150     2.738700
C      1.895023     1.164199     2.655922
H      1.973272     0.751304     1.643921
H      1.660416     0.342854     3.350236
C      3.212478     1.810084     3.041302
H      3.994890     1.038666     3.047227
O      3.623432     2.774931     2.041781
C      3.236622     4.072022     2.526761
H      3.826469     4.806731     1.968990
H      2.166164     4.232398     2.354605
C      3.556959     4.014023     4.016164
H      3.021194     4.773556     4.596460
H      4.634568     4.154069     4.165404
C      3.134360     2.581763     4.379202
H      2.104801     2.568550     4.747569
H      3.785365     2.137207     5.140466
