32
Energy = -1142.572389566 Hartree (EUMP2 CORRECTED)
O      1.653418    -0.040503     0.113560
C      0.960555    -0.014446    -1.155376
H      1.101871    -0.998739    -1.612823
H      1.391220     0.759367    -1.803480
C      0.963198     0.857851     1.014677
H      0.687277     0.284300     1.909379
H      1.624933     1.684583     1.293181
C     -0.477494     0.323020    -0.803373
H     -0.980040    -0.554186    -0.373522
H     -1.057456     0.718220    -1.641857
C     -0.264159     1.387196     0.276417
H     -1.132147     1.523076     0.933848
O      0.098006     2.642939    -0.303786
P     -1.167441     3.526649    -1.001727
O     -2.310640     3.609828    -0.023686
O     -1.327276     3.041795    -2.432409
O     -0.374066     4.987445    -1.013571
C      0.846375     5.061557    -1.759608
H      1.023050     4.137848    -2.323071
H      1.678607     5.217290    -1.062593
C      0.727986     6.224309    -2.732649
H      0.671573     7.168943    -2.178331
O      1.939832     6.296406    -3.535890
C      1.618887     5.763437    -4.829688
H      2.375635     6.138682    -5.525743
H      1.657078     4.663261    -4.814845
C      0.202852     6.253144    -5.091586
H     -0.305236     5.695423    -5.886571
H      0.230796     7.313692    -5.371052
C     -0.446041     6.052060    -3.715846
H     -0.867857     5.045435    -3.615150
H     -1.249905     6.767589    -3.517569
