32
Energy = -1142.567497077 Hartree (EUMP2 CORRECTED)
O     -1.239348     0.036622    -0.507877
C     -0.378944     0.583912    -1.536182
H     -0.819875     0.294966    -2.495030
H      0.627273     0.160089    -1.445675
C     -0.886113     0.756346     0.682631
H     -1.714937     0.646108     1.388161
H      0.033806     0.357772     1.128568
C     -0.361645     2.090568    -1.280490
H      0.582915     2.570753    -1.547247
H     -1.167787     2.580515    -1.839615
C     -0.644573     2.209450     0.237944
H     -1.561908     2.791224     0.387222
O      0.309494     2.868410     1.071292
P      1.958507     2.869186     0.774630
O      2.655444     2.808521     2.111438
O      2.262286     3.888335    -0.299923
O      2.097891     1.376993     0.000100
C      2.824656     0.307195     0.600448
H      3.045644     0.531741     1.652704
H      2.202710    -0.597182     0.538079
C      4.109387     0.077668    -0.178701
H      4.619771    -0.805911     0.232336
O      3.800741    -0.248266    -1.555094
C      3.976032     0.960250    -2.321048
H      4.088132     0.654164    -3.366439
H      3.102451     1.610755    -2.203537
C      5.217486     1.603452    -1.717075
H      5.282653     2.675131    -1.931856
H      6.116537     1.106505    -2.102632
C      5.028343     1.318485    -0.219407
H      4.552096     2.166422     0.278468
H      5.978824     1.123722     0.290127
