32
Energy = -1142.572354705 Hartree (EUMP2 CORRECTED)
O      0.760123     0.005492     1.342363
C      1.457519     1.266801     1.279892
H      2.478331     1.081963     1.628461
H      0.970766     2.001704     1.935172
C     -0.305327     0.047413     0.361174
H     -0.227759    -0.865215    -0.242171
H     -1.277542     0.080435     0.863069
C      1.345447     1.687472    -0.175666
H      2.028570     1.089873    -0.794675
H      1.516363     2.749444    -0.362999
C     -0.106382     1.315631    -0.475889
H     -0.305033     1.138335    -1.539538
O     -0.984121     2.325575     0.032024
P     -1.601912     3.425189    -1.069494
O     -2.027101     4.656978    -0.312582
O     -2.486405     2.670903    -2.039622
O     -0.159025     3.738292    -1.895556
C      0.194566     5.085438    -2.210201
H      1.212689     5.265083    -1.835793
H     -0.493046     5.783723    -1.714717
C      0.184235     5.306554    -3.712501
H      0.399455     6.367824    -3.902891
O      1.238789     4.577420    -4.372254
C      0.736420     3.252845    -4.661088
H      1.227682     2.937602    -5.588742
H      1.019496     2.573828    -3.849291
C     -0.793909     3.368008    -4.778800
H     -1.299410     2.699230    -4.078046
H     -1.135664     3.141997    -5.795945
C     -1.097065     4.830335    -4.400271
H     -1.974294     4.900833    -3.749624
H     -1.270707     5.440775    -5.294758
