32
Energy = -1142.561873794 Hartree (EUMP2 CORRECTED)
O      1.776773     1.246603    -1.511842
C      2.227430     2.546379    -1.109475
H      2.841914     2.949429    -1.919405
H      2.839831     2.460601    -0.197884
C      0.765808     0.918036    -0.531146
H      0.189098     0.084981    -0.930630
H      1.242719     0.620433     0.409812
C      0.940545     3.320307    -0.834465
H      0.571115     3.779045    -1.758032
H      1.041388     4.094023    -0.067891
C     -0.031102     2.229722    -0.338756
H     -0.928371     2.200973    -0.976954
O     -0.436535     2.541089     0.984912
P     -1.128636     1.526682     2.131299
O     -2.627945     1.733918     2.119493
O     -0.273871     1.630528     3.368391
O     -0.809178     0.020528     1.450627
C     -1.886006    -0.786342     0.967302
H     -1.625170    -1.126191    -0.045362
H     -2.812711    -0.199452     0.936863
C     -2.075208    -2.003225     1.856195
H     -2.947846    -2.561981     1.488554
O     -0.965528    -2.917173     1.766726
C      0.027589    -2.493819     2.730310
H      0.520362    -3.408525     3.079000
H      0.760917    -1.849259     2.234765
C     -0.717041    -1.729451     3.839809
H     -0.309136    -0.722656     3.958464
H     -0.649438    -2.253041     4.800868
C     -2.175639    -1.663208     3.344851
H     -2.628448    -0.680627     3.511594
H     -2.791131    -2.422856     3.841867
