32
Energy = -1142.563334577 Hartree (EUMP2 CORRECTED)
O      1.608990    -0.027689    -1.413798
C      2.489516     1.095975    -1.233706
H      3.336640     0.945434    -1.910105
H      2.837110     1.140621    -0.194690
C      0.342181     0.364667    -0.841688
H     -0.432509    -0.114223    -1.451325
H      0.277304     0.034877     0.197319
C      1.605962     2.286073    -1.583951
H      1.959767     3.247540    -1.199845
H      1.492931     2.344388    -2.674579
C      0.264883     1.910003    -0.924883
H     -0.584278     2.228797    -1.539749
O      0.069868     2.608569     0.305917
P      0.848579     2.348380     1.777491
O      1.692235     3.578212     2.040804
O      1.379801     0.939569     1.867372
O     -0.505982     2.414792     2.744397
C     -1.169601     3.671687     2.899082
H     -2.172436     3.585176     2.460894
H     -0.614480     4.470563     2.389540
C     -1.278501     4.003509     4.377426
H     -1.802668     4.964585     4.481046
O     -2.102547     3.035843     5.068505
C     -1.207816     2.067605     5.648195
H     -1.770570     1.552419     6.433640
H     -0.883165     1.353742     4.883752
C     -0.039693     2.902767     6.162294
H      0.877623     2.315178     6.277357
H     -0.299344     3.338223     7.135037
C      0.093060     3.996613     5.088264
H      0.884993     3.767896     4.369284
H      0.311919     4.975099     5.530593
