32
Energy = -1142.570597112 Hartree (EUMP2 CORRECTED)
O      1.731467     0.051840    -0.285741
C      2.348790     1.315796     0.046324
H      3.421840     1.200683    -0.135911
H      2.175686     1.552533     1.103861
C      0.376088     0.321396    -0.720216
H      0.250566    -0.133667    -1.711208
H     -0.334869    -0.121050    -0.015227
C      1.654348     2.324129    -0.852846
H      2.022894     2.231073    -1.883408
H      1.737070     3.365094    -0.532113
C      0.208239     1.839761    -0.765364
H     -0.407623     2.179653    -1.604638
O     -0.375973     2.240349     0.477772
P     -1.051316     3.765613     0.563490
O     -0.745495     4.529950    -0.708650
O     -0.779863     4.319407     1.943128
O     -2.646314     3.233534     0.510727
C     -3.641437     4.219357     0.227878
H     -4.122317     3.961931    -0.724996
H     -3.199473     5.221251     0.130024
C     -4.678240     4.221650     1.337879
H     -5.445775     4.972800     1.098878
O     -5.375749     2.952440     1.381352
C     -4.781699     2.186672     2.444965
H     -5.499292     1.402131     2.706908
H     -3.839892     1.741489     2.103747
C     -4.540961     3.213777     3.543705
H     -3.801391     2.883208     4.281372
H     -5.485286     3.424316     4.061445
C     -4.062044     4.431302     2.738515
H     -2.968947     4.446258     2.674279
H     -4.394999     5.377002     3.181500
