32
Energy = -1142.564429517 Hartree (EUMP2 CORRECTED)
O      0.737835    -0.216789     1.411138
C     -0.137529     0.847209     1.837136
H      0.392835     1.526599     2.517193
H     -0.975119     0.377041     2.362307
C      1.445136     0.237742     0.228360
H      2.509912     0.355375     0.454374
H      1.304836    -0.524785    -0.548457
C     -0.511028     1.561813     0.548444
H     -0.892749     2.577286     0.686532
H     -1.236093     0.960929    -0.016990
C      0.839768     1.589066    -0.168932
H      0.745064     1.703430    -1.252099
O      1.614460     2.641990     0.394020
P      2.403239     3.840067    -0.497058
O      3.891050     3.629014    -0.336848
O      1.686140     5.140752    -0.247915
O      1.976338     3.365681    -2.059975
C      2.839613     2.453085    -2.734021
H      2.904732     1.494676    -2.198391
H      3.855083     2.866786    -2.805918
C      2.247977     2.221259    -4.110323
H      2.897964     1.533409    -4.669228
O      0.966463     1.550888    -3.997656
C     -0.053353     2.547123    -4.185209
H     -0.969810     2.014429    -4.458307
H     -0.204137     3.109937    -3.255744
C      0.507199     3.440991    -5.283802
H      0.016791     4.419678    -5.330928
H      0.394828     2.944200    -6.255189
C      1.985120     3.534304    -4.879905
H      2.142743     4.384779    -4.210316
H      2.651881     3.638206    -5.743052
