32
Energy = -1142.574553663 Hartree (EUMP2 CORRECTED)
O      0.064836    -0.176772     1.130154
C      1.111133     0.818814     1.098853
H      2.010194     0.345989     1.506376
H      0.831874     1.679330     1.720733
C     -0.861751     0.123369     0.057994
H     -0.969778    -0.785863    -0.547111
H     -1.832507     0.410551     0.474970
C      1.209982     1.222575    -0.361985
H      1.715837     0.435989    -0.938472
H      1.702185     2.183886    -0.528567
C     -0.269816     1.279627    -0.747580
H     -0.440372     1.188374    -1.825670
O     -0.879129     2.485573    -0.269184
P     -0.735770     3.859497    -1.210944
O     -1.739660     4.871779    -0.720388
O     -0.600156     3.423805    -2.656187
O      0.798039     4.334043    -0.694609
C      1.068490     5.696095    -0.367973
H      1.795072     5.676540     0.454519
H      0.149272     6.194883    -0.030684
C      1.678038     6.461367    -1.534398
H      1.936161     7.467199    -1.171029
O      2.925271     5.867496    -1.952608
C      2.604673     4.945613    -3.016789
H      3.537099     4.769762    -3.563874
H      2.226792     4.008633    -2.597850
C      1.523241     5.646380    -3.836683
H      0.846821     4.925172    -4.303640
H      1.982642     6.275045    -4.609226
C      0.787721     6.510947    -2.793918
H     -0.212928     6.123865    -2.588548
H      0.679424     7.545338    -3.140172
