32
Energy = -1142.571498551 Hartree (EUMP2 CORRECTED)
O      0.681147    -0.109285     0.493035
C      1.648635     0.958148     0.619051
H      2.635135     0.486490     0.668482
H      1.463085     1.527436     1.538360
C     -0.446138     0.397233    -0.262317
H     -0.583980    -0.256426    -1.133791
H     -1.346054     0.379692     0.360940
C      1.419825     1.828356    -0.605014
H      1.840972     1.350753    -1.500048
H      1.814787     2.843818    -0.513822
C     -0.108156     1.826791    -0.674734
H     -0.495074     2.103025    -1.661341
O     -0.653875     2.693250     0.323187
P     -0.650982     4.339980    -0.011729
O     -0.553107     4.518304    -1.511036
O      0.276512     5.048513     0.954739
O     -2.221705     4.550564     0.515723
C     -2.599147     5.809173     1.074406
H     -3.407449     6.225223     0.459187
H     -1.751046     6.507142     1.089061
C     -3.096688     5.592921     2.494782
H     -3.428453     6.559425     2.901764
O     -4.268743     4.744206     2.500875
C     -3.812710     3.407998     2.787185
H     -4.688522     2.844626     3.125920
H     -3.392870     2.953651     1.883235
C     -2.742391     3.603920     3.854639
H     -2.049427     2.757665     3.915708
H     -3.219355     3.737643     4.833624
C     -2.050964     4.898574     3.395702
H     -1.142696     4.691529     2.822616
H     -1.775646     5.536862     4.243133
