32
Energy = -1142.563106059 Hartree (EUMP2 CORRECTED)
O      1.295082     0.037179     0.357813
C      1.712189     1.068078    -0.560589
H      2.497767     0.633791    -1.186497
H      2.120662     1.928875    -0.016199
C     -0.038642     0.382860     0.802142
H     -0.626838    -0.541766     0.791329
H     -0.005855     0.791020     1.818807
C      0.435171     1.436579    -1.297114
H      0.181408     0.646668    -2.017013
H      0.462649     2.399352    -1.812052
C     -0.587626     1.449037    -0.156804
H     -1.602873     1.233861    -0.504786
O     -0.586949     2.699153     0.546362
P     -1.546646     3.943323    -0.078729
O     -1.800799     4.867138     1.084483
O     -2.597111     3.348874    -0.984384
O     -0.434235     4.682738    -1.110480
C      0.885148     4.917320    -0.626381
H      1.267657     4.049242    -0.081287
H      0.862957     5.772097     0.064892
C      1.823521     5.209063    -1.806956
H      2.352867     6.159549    -1.639509
O      2.852185     4.169088    -1.857116
C      3.036771     3.729311    -3.213665
H      4.112585     3.618080    -3.391148
H      2.554708     2.749410    -3.345413
C      2.367982     4.788053    -4.082252
H      2.062527     4.400452    -5.060849
H      3.047261     5.635157    -4.242491
C      1.191637     5.191528    -3.196122
H      0.390837     4.447413    -3.223341
H      0.751345     6.159488    -3.457871
