32
Energy = -1142.568203156 Hartree (EUMP2 CORRECTED)
O      0.145960    -0.091039     0.344071
C      1.049437     0.472140    -0.636907
H      1.397019    -0.358041    -1.259696
H      1.904265     0.939551    -0.132915
C     -0.849148     0.909346     0.661778
H     -1.837542     0.481991     0.445335
H     -0.784814     1.169837     1.723821
C      0.225469     1.515114    -1.371745
H     -0.464142     1.031457    -2.076923
H      0.823468     2.272356    -1.886413
C     -0.557386     2.127871    -0.208736
H     -1.465351     2.659857    -0.520481
O      0.276261     3.005722     0.552954
P      0.521202     4.548451    -0.107810
O     -0.850177     5.118458    -0.417731
O      1.621689     4.496621    -1.138980
O      1.126835     5.254643     1.270226
C      1.051558     4.741077     2.597625
H      1.981523     5.052847     3.089397
H      0.996912     3.645321     2.590900
C     -0.123532     5.309900     3.381505
H     -0.036999     4.944415     4.416384
O     -0.032285     6.748771     3.464006
C     -0.917294     7.275478     2.454082
H     -1.106606     8.320561     2.720101
H     -0.446200     7.211232     1.467855
C     -2.142242     6.373466     2.530793
H     -2.732699     6.394474     1.609390
H     -2.773645     6.675173     3.376255
C     -1.507894     4.994982     2.771556
H     -1.401654     4.471802     1.820365
H     -2.105090     4.373435     3.449348
