32
Energy = -1142.563774044 Hartree (EUMP2 CORRECTED)
O      1.355337    -0.416941    -0.931094
C      1.806145     0.631804    -1.829142
H      1.275044     0.504395    -2.782082
H      2.879061     0.498014    -2.010557
C      0.721065     0.213659     0.197132
H     -0.091476    -0.438959     0.529981
H      1.431319     0.365126     1.021515
C      1.471324     1.961569    -1.160625
H      1.268581     2.772174    -1.861412
H      2.280190     2.290862    -0.499215
C      0.261013     1.580790    -0.300677
H     -0.632843     1.478942    -0.937213
O     -0.062181     2.385353     0.819920
P      0.408064     3.997450     1.015060
O      0.679444     4.575679    -0.361782
O      1.355276     4.103174     2.177220
O     -1.071326     4.565584     1.535965
C     -2.160640     4.527091     0.614470
H     -2.903348     3.808776     0.986008
H     -1.819711     4.216012    -0.382982
C     -2.784004     5.908791     0.509074
H     -3.608756     5.863033    -0.216484
O     -3.391429     6.309125     1.757822
C     -2.399374     7.069103     2.474562
H     -2.938118     7.652365     3.228598
H     -1.687194     6.391983     2.956961
C     -1.723188     7.915894     1.398972
H     -0.706521     8.209992     1.680854
H     -2.310718     8.824646     1.220668
C     -1.745352     6.997727     0.161886
H     -0.769919     6.539778    -0.025729
H     -2.042226     7.547340    -0.738645
