32
Energy = -1142.575437379 Hartree (EUMP2 CORRECTED)
O      0.517709     0.073333     1.474641
C      1.448989     0.707658     0.568890
H      2.339394     0.071941     0.533412
H      1.721861     1.701789     0.946029
C     -0.823694     0.401547     1.037158
H     -1.358566    -0.542438     0.867828
H     -1.332299     0.983447     1.812461
C      0.694947     0.820214    -0.744507
H      0.646029    -0.158226    -1.241554
H      1.104759     1.563899    -1.431976
C     -0.695577     1.218472    -0.246150
H     -1.484964     1.009521    -0.975895
O     -0.737424     2.599750     0.130071
P     -0.810987     3.737183    -1.107072
O     -1.397672     4.989470    -0.503159
O     -1.303545     3.050277    -2.358327
O      0.832149     3.990157    -1.357146
C      1.518277     5.006666    -0.626801
H      2.352362     4.534518    -0.089775
H      0.843052     5.491081     0.090709
C      2.063962     6.040874    -1.597405
H      2.629724     6.792583    -1.027882
O      3.017735     5.438863    -2.504262
C      2.303165     5.134002    -3.717511
H      3.057252     5.007298    -4.501295
H      1.725806     4.211971    -3.590564
C      1.387456     6.335988    -3.918354
H      0.532330     6.110016    -4.564432
H      1.956015     7.161676    -4.363790
C      0.964395     6.673471    -2.479018
H     -0.009123     6.241472    -2.233128
H      0.899981     7.754925    -2.314166
