32
Energy = -1142.573592237 Hartree (EUMP2 CORRECTED)
O      1.955741     0.309438     0.130291
C      2.306236     1.677909     0.437157
H      3.391933     1.758755     0.324720
H      2.023880     1.914279     1.471228
C      0.605907     0.305519    -0.394036
H      0.630011    -0.204901    -1.365447
H     -0.057829    -0.230950     0.291738
C      1.500488     2.509005    -0.545693
H      1.950285     2.451019    -1.546474
H      1.354904     3.554978    -0.263746
C      0.166463     1.763293    -0.526407
H     -0.450702     1.937015    -1.415123
O     -0.578168     2.092534     0.655070
P     -1.551706     3.446015     0.603424
O     -0.772532     4.644529     0.099811
O     -2.358260     3.457980     1.878555
O     -2.514709     2.893607    -0.667776
C     -3.337960     3.852611    -1.330908
H     -3.022910     3.911604    -2.381509
H     -3.229576     4.851064    -0.884229
C     -4.786958     3.403730    -1.259632
H     -5.408100     4.133517    -1.800175
O     -4.957104     2.147833    -1.963110
C     -5.005170     1.111873    -0.966204
H     -5.472408     0.241326    -1.438332
H     -3.989719     0.864372    -0.634654
C     -5.817587     1.729498     0.164016
H     -5.676652     1.215773     1.121389
H     -6.883490     1.705936    -0.095686
C     -5.278566     3.167227     0.184812
H     -4.445369     3.254170     0.890201
H     -6.047413     3.895442     0.467469
