32
Energy = -1142.562346248 Hartree (EUMP2 CORRECTED)
O     -0.205521    -0.768376    -1.173939
C      0.646467    -0.225398    -2.218670
H      0.037152    -0.113456    -3.126545
H      1.442752    -0.950064    -2.421996
C     -0.355713     0.237596    -0.152361
H     -1.382908     0.187544     0.221390
H      0.346442     0.066973     0.675101
C      1.165118     1.112448    -1.705326
H      1.400119     1.819001    -2.506667
H      2.059097     1.003872    -1.087351
C     -0.006178     1.558942    -0.827380
H     -0.840253     1.878622    -1.474060
O      0.190306     2.554662     0.160077
P      1.458336     3.671895     0.195570
O      0.942884     4.965471    -0.400292
O      2.754375     3.020575    -0.215329
O      1.508411     3.811076     1.853300
C      0.437337     4.490244     2.514037
H     -0.076087     3.768185     3.162187
H     -0.274271     4.898251     1.783820
C      0.999712     5.626326     3.351374
H      0.164743     6.129014     3.860465
O      1.851483     5.124007     4.407031
C      3.203616     5.189376     3.914760
H      3.857956     5.145008     4.791593
H      3.401241     4.341476     3.250564
C      3.260773     6.513613     3.159522
H      4.062951     6.536287     2.413980
H      3.420549     7.334975     3.868761
C      1.862766     6.602857     2.521845
H      1.872814     6.294438     1.472524
H      1.460060     7.620912     2.569924
