32
Energy = -1142.541058551 Hartree (EUMP2 CORRECTED)
O      1.887344     0.202071     0.804189
C      2.336392     1.336618     0.042768
H      3.343449     1.102551    -0.314230
H      2.364076     2.237057     0.671915
C      0.447252     0.307385     0.876943
H      0.048173    -0.706424     0.763805
H      0.140831     0.726046     1.841792
C      1.285794     1.478807    -1.047266
H      1.421472     0.686619    -1.796309
H      1.287167     2.458466    -1.533391
C     -0.005425     1.266100    -0.244585
H     -0.817346     0.819463    -0.827321
O     -0.408102     2.479521     0.357144
P     -1.617500     3.565986    -0.112090
O     -0.948945     4.916820    -0.183131
O     -2.839320     3.265142     0.718637
O     -2.028289     3.170839    -1.699022
C     -1.671500     2.243632    -2.693929
H     -2.184433     1.281389    -2.543562
H     -0.586144     2.069216    -2.733884
C     -2.095520     2.827657    -4.034859
H     -1.753037     2.153871    -4.833802
O     -3.531939     2.874627    -4.150206
C     -3.937136     4.206867    -3.777129
H     -4.944257     4.351409    -4.180511
H     -3.946359     4.301964    -2.686577
C     -2.875952     5.101041    -4.409304
H     -2.815503     6.085292    -3.932955
H     -3.097205     5.238313    -5.474806
C     -1.591014     4.277312    -4.217647
H     -1.062734     4.602003    -3.316182
H     -0.915449     4.362561    -5.076356
