32
Energy = -1142.569183800 Hartree (EUMP2 CORRECTED)
O      1.155757     0.280706     0.827105
C      1.875313     1.523013     0.669232
H      2.934921     1.296629     0.825355
H      1.538342     2.249615     1.420231
C     -0.041531     0.357155     0.014297
H     -0.047743    -0.519355    -0.646346
H     -0.927604     0.346706     0.656622
C      1.521454     1.989167    -0.732235
H      2.060302     1.387843    -1.477442
H      1.690522     3.048469    -0.933003
C      0.028722     1.666074    -0.773533
H     -0.357002     1.565255    -1.794320
O     -0.716726     2.641401    -0.040546
P     -1.214374     4.015865    -0.866276
O     -2.715410     4.015830    -1.008815
O     -0.284340     4.233182    -2.048960
O     -0.751261     5.052396     0.367776
C     -0.660958     6.440151     0.041999
H     -1.432497     6.980792     0.605568
H     -0.816839     6.611605    -1.032806
C      0.714411     6.956311     0.429763
H      0.759141     8.032525     0.208144
O      0.923065     6.844187     1.857101
C      1.662396     5.629035     2.074801
H      2.107546     5.706247     3.072170
H      0.987104     4.767518     2.026086
C      2.676250     5.609035     0.935855
H      3.075129     4.607337     0.739209
H      3.514565     6.272899     1.180936
C      1.859299     6.166197    -0.241849
H      1.440276     5.369483    -0.863862
H      2.462348     6.815226    -0.887097
