32
Energy = -1142.547136251 Hartree (EUMP2 CORRECTED)
O      2.253031     0.702097     0.349832
C      2.219327     1.864121    -0.499534
H      3.122329     1.833523    -1.115821
H      2.210388     2.782382     0.103313
C      0.898944     0.497490     0.808340
H      0.720226    -0.583417     0.802896
H      0.772117     0.894082     1.822054
C      0.914451     1.717482    -1.265365
H      1.019446     0.938134    -2.032639
H      0.568887     2.651883    -1.717328
C     -0.036112     1.268558    -0.144831
H     -0.852521     0.626536    -0.490164
O     -0.529359     2.387722     0.563815
P     -1.826331     3.417422     0.224833
O     -1.217862     4.625372    -0.460388
O     -2.680843     3.478536     1.459368
O     -2.770614     2.663755    -0.951196
C     -2.482603     1.766878    -2.003436
H     -2.715126     0.734523    -1.703547
H     -1.434130     1.824503    -2.326303
C     -3.347320     2.156683    -3.193438
H     -3.053429     1.543735    -4.057535
O     -4.739446     1.876475    -2.976263
C     -5.305688     3.009178    -2.274447
H     -6.352861     3.066986    -2.591093
H     -5.251954     2.832166    -1.196468
C     -4.469512     4.238722    -2.673583
H     -4.105140     4.760578    -1.786238
H     -5.053844     4.941152    -3.279398
C     -3.285170     3.661861    -3.475109
H     -2.335511     4.099771    -3.151015
H     -3.415473     3.836688    -4.549803
