32
Energy = -1142.566362621 Hartree (EUMP2 CORRECTED)
O      0.984377    -0.204297     1.367100
C     -0.010151     0.756955     1.778445
H      0.431768     1.490150     2.465896
H     -0.797591     0.196311     2.292038
C      1.663338     0.334763     0.203677
H      2.699454     0.580879     0.458311
H      1.638183    -0.437290    -0.575420
C     -0.441155     1.426825     0.483748
H     -0.930980     2.396241     0.612962
H     -1.089085     0.750771    -0.090621
C      0.910403     1.601732    -0.212331
H      0.822395     1.695565    -1.297855
O      1.571374     2.733222     0.348748
P      1.901183     4.147693    -0.513605
O      3.370530     4.440125    -0.331069
O      0.783400     5.127977    -0.263159
O      1.652999     3.592167    -2.087361
C      2.736577     2.909401    -2.714741
H      3.023901     2.013018    -2.145423
H      3.616897     3.564498    -2.778648
C      2.261710     2.501240    -4.095255
H      3.078088     1.983171    -4.617852
O      1.184135     1.536161    -3.988876
C     -0.045404     2.241260    -4.231615
H     -0.792096     1.489770    -4.507082
H     -0.358895     2.773231    -3.324818
C      0.307939     3.217162    -5.346423
H     -0.409078     4.040676    -5.437296
H      0.352459     2.682444    -6.303032
C      1.703042     3.687186    -4.912043
H      1.623483     4.566535    -4.266346
H      2.348639     3.933118    -5.762403
