32
Energy = -1142.566577880 Hartree (EUMP2 CORRECTED)
O     -0.140375    -0.772049    -0.075499
C      0.610872    -0.141748    -1.130519
H      0.648114    -0.850669    -1.963278
H      1.627131     0.089276    -0.787237
C     -0.446336     0.296256     0.847632
H     -1.367381     0.009871     1.365039
H      0.373426     0.430018     1.560109
C     -0.174134     1.131418    -1.412338
H     -1.069449     0.879026    -1.995278
H      0.399928     1.904769    -1.924458
C     -0.604203     1.582057    -0.002597
H     -1.647261     1.916441    -0.013235
O      0.081118     2.722267     0.537804
P      1.716706     2.858456     0.821123
O      2.238462     1.689133     1.631498
O      1.957220     4.297938     1.205045
O      2.220237     2.619038    -0.771441
C      3.613458     2.393839    -0.982783
H      3.740305     1.391421    -1.415119
H      4.175875     2.432366    -0.039260
C      4.141946     3.436529    -1.951329
H      5.200652     3.220898    -2.160095
O      3.457655     3.321815    -3.225030
C      2.498525     4.391375    -3.288399
H      2.252070     4.532608    -4.345960
H      1.597804     4.122117    -2.723083
C      3.216406     5.568062    -2.642116
H      2.532632     6.360890    -2.319047
H      3.938646     5.991849    -3.351441
C      3.922749     4.884112    -1.463881
H      3.283048     4.891948    -0.574538
H      4.873324     5.366443    -1.208681
