32
Energy = -1142.567859408 Hartree (EUMP2 CORRECTED)
O      0.791804    -0.188415     0.781109
C      1.514278     0.705575    -0.087757
H      2.374438     0.147272    -0.470831
H      1.867358     1.579905     0.476328
C     -0.581704     0.272966     0.827185
H     -1.219274    -0.605792     0.674656
H     -0.793771     0.723571     1.802684
C      0.492433     1.108113    -1.138134
H      0.328595     0.274798    -1.834558
H      0.736158     2.011855    -1.702820
C     -0.754486     1.323401    -0.275430
H     -1.684729     1.205556    -0.840894
O     -0.740237     2.611075     0.351569
P     -1.365607     3.912170    -0.530346
O     -1.646918     4.985983     0.488100
O     -2.332412     3.382088    -1.559497
O      0.015360     4.343224    -1.398728
C      1.156993     4.726798    -0.632952
H      1.637553     3.834321    -0.205951
H      0.862682     5.384077     0.192985
C      2.167232     5.416579    -1.557576
H      2.031879     6.503555    -1.512474
O      3.518070     5.178234    -1.073000
C      4.113578     4.218820    -1.954081
H      5.197292     4.288607    -1.820684
H      3.785024     3.198335    -1.696418
C      3.602792     4.621104    -3.329831
H      3.728841     3.837923    -4.086484
H      4.134534     5.519655    -3.665246
C      2.131180     4.923358    -3.018584
H      1.517139     4.021886    -3.094182
H      1.691155     5.669442    -3.686518
