32
Energy = -1142.570884586 Hartree (EUMP2 CORRECTED)
O      1.034546    -0.123110     0.246226
C      1.901204     1.023984     0.399940
H      2.929194     0.649099     0.373298
H      1.709860     1.514564     1.362450
C     -0.178213     0.320298    -0.409877
H     -0.311576    -0.292844    -1.310814
H     -1.032652     0.185376     0.261179
C      1.527911     1.941001    -0.752220
H      1.943656     1.560882    -1.695147
H      1.831136     2.982339    -0.613850
C      0.005125     1.796665    -0.750877
H     -0.455948     2.088358    -1.700481
O     -0.567495     2.551153     0.320964
P     -0.729743     4.202560     0.081828
O     -0.724021     4.481707    -1.406338
O      0.173312     4.946571     1.044677
O     -2.286728     4.236638     0.690281
C     -2.827138     5.515634     1.027707
H     -3.675366     5.717972     0.361153
H     -2.077782     6.311285     0.910068
C     -3.300134     5.487473     2.471569
H     -3.745287     6.463448     2.714444
O     -4.363874     4.520930     2.641365
C     -3.756193     3.318660     3.150289
H     -4.561423     2.724961     3.595533
H     -3.281980     2.764352     2.332934
C     -2.722327     3.822974     4.150405
H     -1.937095     3.086209     4.352717
H     -3.218291     4.074320     5.096229
C     -2.180907     5.084191     3.457098
H     -1.256705     4.878451     2.908436
H     -1.977654     5.888515     4.173404
