32
Energy = -1142.559105707 Hartree (EUMP2 CORRECTED)
O      1.037854    -0.410016     0.030586
C      1.885667     0.752832    -0.017569
H      2.895472     0.399838    -0.248307
H      1.885712     1.267191     0.953451
C     -0.317309     0.046121    -0.202682
H     -0.769810    -0.649819    -0.918132
H     -0.884976     0.041227     0.734013
C      1.250996     1.628971    -1.085110
H      1.465933     1.219873    -2.082119
H      1.546644     2.680015    -1.036727
C     -0.235323     1.482046    -0.740936
H     -0.910115     1.637653    -1.591295
O     -0.570358     2.379116     0.316745
P     -1.364920     3.809845    -0.091595
O     -1.578149     4.528957     1.207578
O     -2.430565     3.481988    -1.118135
O     -0.118311     4.607268    -0.913705
C     -0.176935     4.682887    -2.332584
H      0.010287     3.707010    -2.809073
H     -1.180235     5.004332    -2.633141
C      0.875922     5.694601    -2.819726
H      0.477214     6.164622    -3.729431
O      1.106824     6.770302    -1.904780
C      2.264121     6.402017    -1.141018
H      2.619995     7.310278    -0.646047
H      1.987421     5.650995    -0.391139
C      3.220710     5.840944    -2.192779
H      4.009279     5.211553    -1.764078
H      3.694633     6.667800    -2.734244
C      2.260873     5.060983    -3.111779
H      2.258216     3.996748    -2.854860
H      2.532462     5.146883    -4.169281
