32
Energy = -1142.568716157 Hartree (EUMP2 CORRECTED)
O      0.748556     0.161060    -1.417728
C      1.404275     1.373433    -1.848113
H      1.766109     1.192010    -2.864875
H      2.244119     1.617782    -1.186326
C     -0.011960     0.543970    -0.253927
H     -0.857420    -0.148242    -0.186663
H      0.602792     0.462443     0.647302
C      0.319660     2.434740    -1.737332
H      0.714344     3.448593    -1.655146
H     -0.357193     2.356631    -2.598066
C     -0.443714     2.017010    -0.463634
H     -1.524183     2.078217    -0.636585
O     -0.266983     2.823657     0.709151
P      1.201566     3.398789     1.296146
O      0.828381     4.328761     2.421422
O      2.131968     3.728517     0.155314
O      1.824338     1.982039     1.959098
C      1.234090     1.517980     3.171036
H      0.187323     1.226772     3.002543
H      1.255231     2.311301     3.932135
C      2.032991     0.313822     3.630939
H      1.621661    -0.040918     4.586570
O      1.876773    -0.786690     2.702367
C      3.053084    -0.816477     1.875130
H      3.103224    -1.816137     1.433025
H      2.976530    -0.061432     1.083821
C      4.184838    -0.494121     2.843157
H      5.096727    -0.157307     2.337301
H      4.422983    -1.383418     3.439509
C      3.549385     0.598863     3.715080
H      3.755831     1.588482     3.297750
H      3.909633     0.572882     4.749579
