32
Energy = -1142.574179738 Hartree (EUMP2 CORRECTED)
O      1.462289     0.258770     0.279217
C      1.815119     1.422520    -0.494432
H      2.643483     1.132366    -1.149335
H      2.137642     2.235152     0.170280
C      0.047341     0.344231     0.601019
H     -0.427048    -0.580475     0.248057
H     -0.089428     0.441044     1.681016
C      0.532934     1.798243    -1.220494
H      0.351585     1.104479    -2.052084
H      0.501895     2.824653    -1.594855
C     -0.497141     1.580574    -0.116220
H     -1.511766     1.428539    -0.495996
O     -0.446881     2.717394     0.754969
P     -1.924356     3.207295     1.399736
O     -1.652086     4.500875     2.121805
O     -2.634287     1.999461     1.959941
O     -2.726068     3.536966    -0.048431
C     -2.271040     4.679627    -0.770268
H     -1.176744     4.670566    -0.859834
H     -2.566704     5.603258    -0.249562
C     -2.894600     4.627630    -2.151258
H     -2.591432     5.522831    -2.712735
O     -2.374648     3.499041    -2.898338
C     -3.380201     2.473956    -2.876250
H     -3.159144     1.792980    -3.704331
H     -3.345837     1.933192    -1.922353
C     -4.687013     3.242801    -3.022914
H     -5.564027     2.660703    -2.718129
H     -4.816134     3.552299    -4.067246
C     -4.429387     4.454070    -2.116570
H     -4.746063     4.236120    -1.092460
H     -4.947512     5.356488    -2.459749
