32
Energy = -1142.567620879 Hartree (EUMP2 CORRECTED)
O      1.406919     0.130513     0.634505
C      1.950298     1.138947    -0.243976
H      2.795620     0.679897    -0.766157
H      2.299345     2.001409     0.339045
C      0.006516     0.442699     0.846258
H     -0.564643    -0.470963     0.639938
H     -0.153662     0.761827     1.881256
C      0.783579     1.531720    -1.136048
H      0.601163     0.748513    -1.884356
H      0.895033     2.503522    -1.626560
C     -0.353694     1.578833    -0.113365
H     -1.344176     1.434020    -0.554082
O     -0.299496     2.806011     0.612460
P     -1.283161     4.112539     0.205142
O     -0.653609     4.851599    -0.958627
O     -1.703828     4.745086     1.502050
O     -2.610671     3.272993    -0.416768
C     -2.820232     3.263181    -1.825202
H     -1.957573     2.838418    -2.355235
H     -2.975459     4.283823    -2.203431
C     -4.046711     2.408224    -2.078407
H     -4.255427     2.392640    -3.157548
O     -3.780768     1.031309    -1.707185
C     -4.410588     0.802365    -0.435373
H     -4.528079    -0.280887    -0.330176
H     -3.780118     1.195335     0.371917
C     -5.721539     1.571882    -0.532879
H     -6.175719     1.769461     0.444498
H     -6.435184     1.006150    -1.144215
C     -5.273183     2.851902    -1.251449
H     -4.964843     3.607546    -0.523053
H     -6.058841     3.275433    -1.886969
