32
Energy = -1142.569934084 Hartree (EUMP2 CORRECTED)
O      1.480386    -0.158229     0.481944
C      1.911485     0.701330    -0.585456
H      2.701290     0.172407    -1.129447
H      2.312292     1.641244    -0.181572
C      0.076491     0.128374     0.759117
H     -0.477366    -0.811816     0.636385
H     -0.033755     0.507874     1.775111
C      0.651966     0.961019    -1.397221
H      0.401433     0.076230    -1.997001
H      0.703103     1.843477    -2.041661
C     -0.374484     1.155759    -0.285761
H     -1.404339     0.955031    -0.617258
O     -0.275260     2.521690     0.118592
P     -1.107121     3.136861     1.457293
O     -0.805895     2.270535     2.667155
O     -2.505830     3.522013     1.052644
O     -0.213391     4.533221     1.553480
C      1.137317     4.435123     2.015568
H      1.795417     4.809469     1.220375
H      1.395637     3.392587     2.243716
C      1.317892     5.275925     3.267432
H      2.342673     5.127804     3.636441
O      1.205215     6.687025     2.997572
C     -0.197055     7.032444     3.070545
H     -0.237349     8.060743     3.447516
H     -0.634016     6.989773     2.067882
C     -0.863316     6.005796     4.006113
H     -1.689029     5.505256     3.495508
H     -1.253868     6.481720     4.913365
C      0.258798     5.002351     4.337451
H     -0.090157     3.965399     4.306703
H      0.687348     5.214163     5.324599
