32
Energy = -1142.566492437 Hartree (EUMP2 CORRECTED)
O      1.705726     0.680078     1.361572
C      1.866633     2.065748     0.985476
H      2.937621     2.284653     1.038231
H      1.319979     2.713681     1.682254
C      0.513799     0.183392     0.707157
H      0.792631    -0.728352     0.163297
H     -0.253677    -0.047349     1.452877
C      1.265675     2.152035    -0.406989
H      1.944466     1.703457    -1.145290
H      1.001881     3.164839    -0.719758
C      0.018976     1.282251    -0.236272
H     -0.359905     0.883312    -1.183372
O     -1.002737     1.997128     0.455986
P     -1.992405     3.121814    -0.296404
O     -1.669070     4.501595     0.231567
O     -3.397771     2.564716    -0.331734
O     -1.317735     2.979076    -1.837956
C     -1.329792     4.116650    -2.698373
H     -0.296306     4.305863    -3.020895
H     -1.695908     5.004776    -2.165738
C     -2.183331     3.831614    -3.921778
H     -2.136349     4.704558    -4.590256
O     -1.618532     2.729022    -4.676336
C     -2.418597     1.569649    -4.387281
H     -2.232206     0.848404    -5.189803
H     -2.125872     1.144271    -3.419416
C     -3.840735     2.109840    -4.336749
H     -4.535069     1.438731    -3.819512
H     -4.205013     2.281094    -5.357688
C     -3.635003     3.431201    -3.583677
H     -3.748057     3.263958    -2.507653
H     -4.345266     4.206444    -3.892874
