32
Energy = -1142.568577092 Hartree (EUMP2 CORRECTED)
O      0.419812    -0.035339     0.604766
C      1.300479     0.672601    -0.300010
H      1.879918    -0.086342    -0.834975
H      1.975724     1.325030     0.266779
C     -0.783720     0.752334     0.763853
H     -1.636281     0.125781     0.468498
H     -0.891482     1.051569     1.811917
C      0.370889     1.496183    -1.174450
H     -0.122843     0.858577    -1.920286
H      0.858345     2.337087    -1.675072
C     -0.644089     1.976886    -0.136109
H     -1.590117     2.305252    -0.582137
O     -0.084078     3.025487     0.656254
P     -0.041428     4.572298    -0.050037
O     -1.129872     4.637699    -1.097347
O      1.408285     4.897286    -0.315115
O     -0.595666     5.438688     1.265267
C     -0.360955     5.030682     2.610558
H      0.234963     5.807889     3.107245
H      0.181715     4.078380     2.652230
C     -1.695026     4.891143     3.326824
H     -1.504143     4.573579     4.362563
O     -2.353922     6.176558     3.426467
C     -3.343932     6.220947     2.382562
H     -4.050014     7.013022     2.651856
H     -2.866977     6.444559     1.421441
C     -3.937403     4.818168     2.390417
H     -4.467272     4.574155     1.463046
H     -4.633136     4.717686     3.232835
C     -2.685070     3.954310     2.598591
H     -2.266212     3.650807     1.637130
H     -2.889796     3.051888     3.186278
