32
Energy = -1142.568853508 Hartree (EUMP2 CORRECTED)
O      1.676581     0.472006     0.283572
C      1.957715     1.553895    -0.640293
H      2.847606     1.259570    -1.206383
H      2.160645     2.478243    -0.086189
C      0.243903     0.405353     0.475182
H     -0.091925    -0.596343     0.172945
H      0.004716     0.574040     1.529916
C      0.693551     1.683563    -1.473153
H      0.635582     0.872109    -2.212346
H      0.562976     2.644126    -1.976453
C     -0.375617     1.492991    -0.397978
H     -1.352493     1.204757    -0.804976
O     -0.483715     2.666090     0.408023
P     -1.472870     3.924902    -0.139797
O     -2.648954     4.014763     0.803046
O     -1.587445     3.848005    -1.643954
O     -0.408854     5.175394     0.185905
C      0.285307     5.213286     1.429995
H      0.520893     4.201324     1.775892
H     -0.332610     5.718789     2.190850
C      1.574142     5.985166     1.210104
H      2.082693     6.107510     2.176754
O      2.485787     5.227016     0.381938
C      2.342415     5.720911    -0.961066
H      3.235242     5.404957    -1.510215
H      1.442025     5.300383    -1.422929
C      2.221982     7.229996    -0.778918
H      1.771860     7.728495    -1.644674
H      3.216344     7.659000    -0.605692
C      1.353456     7.333890     0.485408
H      0.298210     7.437925     0.218473
H      1.639579     8.182459     1.117061
