32
Energy = -1142.572853038 Hartree (EUMP2 CORRECTED)
O     -0.638580    -0.820996    -0.070725
C     -1.748672     0.069348     0.155011
H     -1.731948     0.443589     1.187306
H     -2.662013    -0.511237    -0.011054
C      0.485392    -0.028273    -0.537977
H      1.296219    -0.061219     0.195825
H      0.823680    -0.464627    -1.486329
C     -1.528020     1.206315    -0.830626
H     -2.066718     2.125720    -0.584955
H     -1.790755     0.880383    -1.845861
C     -0.019640     1.407011    -0.709238
H      0.442723     1.903886    -1.567076
O      0.215338     2.155820     0.483739
P      1.470968     3.279902     0.500536
O      0.888294     4.591729     0.976866
O      2.289290     3.108973    -0.757333
O      2.378806     2.629632     1.743087
C      1.993218     2.891887     3.095037
H      1.830815     1.927553     3.594602
H      1.070215     3.485186     3.124603
C      3.097775     3.653621     3.807503
H      2.751054     3.896074     4.822207
O      4.283682     2.854259     3.985353
C      5.083688     2.988833     2.788205
H      6.128665     2.924594     3.112597
H      4.857957     2.162957     2.106341
C      4.717363     4.343390     2.152524
H      4.375680     4.201254     1.124815
H      5.573856     5.027977     2.142441
C      3.577125     4.885483     3.036691
H      2.770532     5.333660     2.448222
H      3.960211     5.624887     3.750585
