32
Energy = -1142.560812627 Hartree (EUMP2 CORRECTED)
O      0.373791    -0.524711     0.760857
C      1.364809    -0.198995    -0.242501
H      1.343984    -1.010029    -0.976893
H      2.358233    -0.180229     0.228209
C     -0.168843     0.731646     1.179002
H     -1.102362     0.529228     1.710489
H      0.524725     1.274204     1.839535
C      0.981976     1.171796    -0.829478
H      0.868448     1.151375    -1.914332
H      1.724344     1.938591    -0.585879
C     -0.335004     1.534634    -0.108312
H     -1.205495     1.179628    -0.678251
O     -0.528005     2.891349     0.258425
P     -0.092043     4.250052    -0.612493
O      1.244891     4.761629    -0.122162
O     -1.309593     5.137037    -0.737863
O      0.168580     3.455937    -2.073464
C      0.883139     4.161927    -3.083760
H      1.838691     3.647944    -3.259288
H      1.100893     5.194788    -2.777156
C      0.053847     4.157076    -4.354893
H      0.618809     4.662424    -5.152180
O     -0.142456     2.795231    -4.814615
C     -1.476123     2.409682    -4.439723
H     -1.751476     1.563285    -5.077627
H     -1.496252     2.109943    -3.384791
C     -2.301873     3.668526    -4.668752
H     -3.257310     3.655903    -4.132611
H     -2.501163     3.785535    -5.741451
C     -1.352764     4.760160    -4.154369
H     -1.531302     4.957998    -3.091682
H     -1.464377     5.702046    -4.703550
