32
Energy = -1142.572014048 Hartree (EUMP2 CORRECTED)
O      1.278778     0.204052     0.386807
C      1.958523     1.308054    -0.252545
H      2.815293     0.884431    -0.785977
H      2.310328     2.020968     0.504549
C     -0.119419     0.561579     0.510869
H     -0.708025    -0.248129     0.060477
H     -0.381835     0.669595     1.568660
C      0.902521     1.940977    -1.141301
H      0.731940     1.316100    -2.028711
H      1.102900     2.968999    -1.451387
C     -0.317011     1.889629    -0.222840
H     -1.271018     1.927862    -0.762976
O     -0.256066     2.934092     0.757956
P     -0.941517     4.400663     0.318240
O     -0.703548     4.651763    -1.157387
O     -0.612198     5.373515     1.416650
O     -2.543694     3.892356     0.493156
C     -3.489079     4.224824    -0.515178
H     -3.038263     4.129975    -1.509487
H     -3.845022     5.262349    -0.390341
C     -4.658004     3.269475    -0.364180
H     -5.417417     3.510064    -1.122031
O     -4.236180     1.911231    -0.641754
C     -4.076927     1.246494     0.622084
H     -4.115066     0.170721     0.422518
H     -3.111944     1.515147     1.069183
C     -5.236025     1.772967     1.458803
H     -5.093753     1.617564     2.534248
H     -6.165789     1.278138     1.152456
C     -5.245426     3.256178     1.065280
H     -4.592803     3.829697     1.730212
H     -6.249183     3.694859     1.095917
