32
Energy = -1142.571149085 Hartree (EUMP2 CORRECTED)
O      1.043024     0.037971     0.514088
C      1.552079     0.947307    -0.485324
H      2.421324     0.462311    -0.942131
H      1.864252     1.887455    -0.011174
C     -0.387628     0.249180     0.620850
H     -0.877780    -0.717331     0.444769
H     -0.632075     0.614333     1.623316
C      0.382920     1.177750    -1.427015
H      0.237166     0.299506    -2.070740
H      0.463463     2.074564    -2.044769
C     -0.774166     1.285411    -0.432686
H     -1.746272     1.088391    -0.897671
O     -0.800113     2.557311     0.221887
P     -1.337532     3.887369    -0.673601
O     -1.794159     4.909064     0.334302
O     -2.130266     3.372366    -1.849344
O      0.140972     4.390306    -1.312585
C      1.027148     5.063121    -0.416162
H      1.418205     4.356641     0.333392
H      0.510687     5.871704     0.110810
C      2.190157     5.582244    -1.248787
H      1.894432     6.504452    -1.765505
O      3.299368     5.942934    -0.379018
C      4.374447     5.028399    -0.632351
H      5.301743     5.533676    -0.344830
H      4.259407     4.118908    -0.021161
C      4.252364     4.703094    -2.114190
H      4.806089     3.803233    -2.406474
H      4.620651     5.548375    -2.708422
C      2.734344     4.550220    -2.248174
H      2.422125     3.544136    -1.949317
H      2.355776     4.722000    -3.259213
