32
Energy = -1142.573357433 Hartree (EUMP2 CORRECTED)
O      2.279032     0.631721    -0.375917
C      2.229689     1.922285    -1.024511
H      3.006539     1.917883    -1.795327
H      2.435478     2.717103    -0.296095
C      0.952420     0.339130     0.123354
H      0.663801    -0.645761    -0.266185
H      0.962589     0.317909     1.217884
C      0.809697     2.025999    -1.552160
H      0.689420     1.386360    -2.437349
H      0.467276     3.036494    -1.784335
C      0.023077     1.448004    -0.376282
H     -0.962775     1.065624    -0.669230
O     -0.097020     2.406740     0.677063
P     -1.338930     3.533201     0.580969
O     -1.756435     3.673209    -0.870922
O     -0.946416     4.675422     1.477233
O     -2.543104     2.686591     1.391305
C     -3.659353     2.150350     0.679964
H     -3.775281     1.099870     0.980966
H     -3.488061     2.213094    -0.402849
C     -4.929981     2.908175     1.029027
H     -5.747069     2.509777     0.410314
O     -5.337523     2.691103     2.393097
C     -4.635966     3.655981     3.212861
H     -5.306731     3.887603     4.047976
H     -3.714308     3.205343     3.594044
C     -4.323902     4.866589     2.314072
H     -3.252639     5.082030     2.317115
H     -4.864564     5.761210     2.645215
C     -4.785100     4.427246     0.909734
H     -4.074042     4.710537     0.127228
H     -5.764098     4.859189     0.668928
