32
Energy = -1142.571576669 Hartree (EUMP2 CORRECTED)
O      1.023580    -0.085182     0.454062
C      1.551819     0.803113    -0.550824
H      2.359039     0.263536    -1.057011
H      1.959074     1.706775    -0.076937
C     -0.357013     0.291499     0.687711
H     -0.956552    -0.624462     0.620022
H     -0.460198     0.731740     1.685098
C      0.356961     1.135962    -1.428395
H      0.118129     0.279775    -2.073598
H      0.467690     2.033023    -2.042287
C     -0.741825     1.319028    -0.379848
H     -1.741971     1.155095    -0.794123
O     -0.682996     2.611768     0.233395
P     -1.303764     3.915389    -0.652668
O     -1.717833     4.939086     0.371851
O     -2.159591     3.372977    -1.769931
O      0.118812     4.447721    -1.387872
C      1.169654     4.856141    -0.510834
H      1.543147     4.003661     0.075084
H      0.816553     5.627324     0.183919
C      2.275677     5.389819    -1.400155
H      1.927741     6.292693    -1.916909
O      3.408346     5.790067    -0.575304
C      4.504016     4.909507    -0.855379
H      5.424376     5.454686    -0.623489
H      4.451191     4.013057    -0.216987
C      4.330864     4.540997    -2.321576
H      4.897266     3.649115    -2.613894
H      4.649085     5.379200    -2.953323
C      2.814075     4.345794    -2.389896
H      2.541717     3.339968    -2.050577
H      2.394325     4.477267    -3.391025
