32
Energy = -1142.562647956 Hartree (EUMP2 CORRECTED)
O      1.921887     0.716695    -0.742828
C      2.365146     2.077760    -0.686889
H      3.190524     2.187646    -1.396419
H      2.719515     2.317416     0.328118
C      0.682851     0.723990     0.009932
H      0.122474    -0.166276    -0.276255
H      0.908715     0.692784     1.081850
C      1.112631     2.875504    -1.029698
H      0.968483     2.881379    -2.116344
H      1.111937     3.904692    -0.658988
C     -0.002476     2.070741    -0.340357
H     -0.841058     1.897812    -1.032548
O     -0.484975     2.817977     0.769391
P     -1.356508     2.196847     2.073937
O     -2.751192     2.776316     2.016589
O     -0.457126     2.239132     3.282000
O     -1.433354     0.572292     1.628935
C     -2.578409     0.094215     0.925670
H     -2.397919     0.129661    -0.159993
H     -3.454866     0.713629     1.158582
C     -2.807048    -1.344044     1.348065
H     -3.686995    -1.736010     0.818285
O     -1.694940    -2.175998     0.934302
C     -0.863891    -2.377096     2.091934
H     -0.247962    -3.258886     1.888903
H     -0.227631    -1.499381     2.254602
C     -1.860927    -2.552237     3.230453
H     -1.414078    -2.389486     4.217399
H     -2.282920    -3.564284     3.197668
C     -2.923416    -1.500429     2.879877
H     -2.690502    -0.547338     3.363480
H     -3.932202    -1.805803     3.178807
