32
Energy = -1142.568396666 Hartree (EUMP2 CORRECTED)
O      1.055020     0.086743     0.635093
C      1.668660     0.875653    -0.410540
H      2.364318     0.217481    -0.941393
H      2.217650     1.718904     0.025590
C     -0.294199     0.566372     0.820076
H     -0.979977    -0.272000     0.631312
H     -0.418724     0.922600     1.847750
C      0.508156     1.372159    -1.251387
H      0.109805     0.556854    -1.871572
H      0.771192     2.233773    -1.866596
C     -0.524660     1.710877    -0.169407
H     -1.549608     1.734776    -0.563261
O     -0.264068     2.922875     0.548609
P     -0.033753     4.403351    -0.212125
O      1.022619     4.300774    -1.293515
O     -0.025623     5.416671     0.896307
O     -1.537381     4.492020    -0.981839
C     -1.622937     4.360023    -2.394806
H     -1.002515     3.533916    -2.760214
H     -1.284788     5.282510    -2.894350
C     -3.078752     4.094918    -2.731423
H     -3.185926     4.028508    -3.823567
O     -3.486289     2.803708    -2.215671
C     -4.228165     3.042998    -1.007475
H     -4.822215     2.143378    -0.817174
H     -3.538984     3.226544    -0.174295
C     -5.051678     4.284272    -1.326848
H     -5.427502     4.790525    -0.430686
H     -5.905142     4.006935    -1.957497
C     -4.040735     5.133056    -2.110959
H     -3.483031     5.783840    -1.431304
H     -4.518041     5.752695    -2.878431
