32
Energy = -1142.570827714 Hartree (EUMP2 CORRECTED)
O      1.721088     0.281363     0.125201
C      2.049510     1.423633    -0.695509
H      2.972217     1.174402    -1.229316
H      2.214693     2.306104    -0.064311
C      0.281405     0.251638     0.287543
H     -0.065884    -0.739177    -0.032836
H      0.023516     0.414964     1.338776
C      0.831541     1.617609    -1.581912
H      0.811011     0.857125    -2.374400
H      0.746177     2.610480    -2.028564
C     -0.297530     1.367292    -0.581139
H     -1.240228     1.093517    -1.065854
O     -0.487311     2.504071     0.265487
P     -1.352145     3.801986    -0.355531
O     -2.175382     4.382798     0.762439
O     -1.901071     3.421788    -1.716553
O     -0.003169     4.789623    -0.602404
C     -0.087983     5.720017    -1.680136
H     -0.937905     6.404224    -1.546043
H     -0.222854     5.182664    -2.631329
C      1.200004     6.523691    -1.713856
H      1.228495     7.096380    -2.650572
O      1.272449     7.503993    -0.663643
C      1.750735     6.824423     0.518105
H      2.285919     7.577249     1.106620
H      0.899603     6.441190     1.088667
C      2.648086     5.671781     0.025170
H      2.317496     4.726709     0.460748
H      3.698932     5.835011     0.291748
C      2.451595     5.664235    -1.504231
H      2.326866     4.652447    -1.902572
H      3.302634     6.137059    -2.008823
