32
Energy = -1142.573473631 Hartree (EUMP2 CORRECTED)
O      0.652797    -0.528784    -0.115323
C      1.452134     0.307402    -0.980687
H      2.001883    -0.362675    -1.649220
H      2.160377     0.896987    -0.384145
C     -0.532845     0.218505     0.259177
H     -1.405951    -0.387434    -0.014859
H     -0.532217     0.403887     1.337476
C      0.446701     1.214490    -1.671902
H     -0.088807     0.659643    -2.454028
H      0.867654     2.132980    -2.089451
C     -0.484410     1.539263    -0.507122
H     -1.483305     1.863524    -0.821629
O      0.139476     2.528975     0.315991
P     -0.646770     4.022666     0.340230
O     -1.985617     3.823449     1.026125
O     -0.505026     4.691557    -1.004532
O      0.419111     4.758523     1.376582
C      0.349008     4.432858     2.769046
H      1.330587     4.047863     3.074161
H     -0.418397     3.669003     2.948989
C      0.014565     5.676138     3.575070
H     -0.096802     5.383057     4.628702
O      1.083306     6.642521     3.554144
C      0.904361     7.462953     2.376730
H      1.273895     8.459926     2.642399
H      1.502113     7.054791     1.555655
C     -0.597036     7.432788     2.032988
H     -0.746188     7.084110     1.008587
H     -1.052591     8.425226     2.131163
C     -1.201754     6.436295     3.041737
H     -1.929118     5.763523     2.576674
H     -1.679234     6.970069     3.872430
