32
Energy = -1142.575479700 Hartree (EUMP2 CORRECTED)
O     -0.340415     0.465484     1.356145
C      0.920323     1.149011     1.143308
H      1.716995     0.429683     1.360589
H      0.995548     1.999993     1.830711
C     -1.275827     0.906333     0.344105
H     -1.509533     0.054261    -0.310687
H     -2.191095     1.259334     0.829480
C      0.880766     1.627638    -0.299645
H      1.113752     0.805804    -0.990562
H      1.543813     2.475117    -0.495124
C     -0.591417     2.023978    -0.426060
H     -0.937100     2.118584    -1.462240
O     -0.837185     3.236226     0.286389
P     -0.378991     4.670205    -0.493610
O     -0.689274     4.502498    -1.960573
O      0.980416     5.081891     0.036920
O     -1.550404     5.618659     0.207675
C     -1.229734     6.542039     1.251172
H     -1.855428     7.424798     1.070632
H     -0.169958     6.824444     1.196860
C     -1.541438     6.001782     2.640647
H     -1.389139     6.828955     3.350521
O     -2.934312     5.640059     2.758840
C     -3.006121     4.215503     2.541407
H     -3.969302     3.887990     2.947314
H     -2.947707     3.997679     1.470303
C     -1.793155     3.661184     3.280943
H     -1.479115     2.684552     2.899394
H     -2.023259     3.570580     4.350271
C     -0.731062     4.747399     3.038743
H     -0.044867     4.462822     2.238786
H     -0.135366     4.941623     3.938584
