32
Energy = -1142.570727730 Hartree (EUMP2 CORRECTED)
O      1.688039     0.041344    -0.789216
C      2.312894     1.310751    -0.491542
H      3.340030     1.251847    -0.864837
H      2.320062     1.483971     0.591754
C      0.269641     0.276397    -0.960052
H     -0.016802    -0.127919    -1.939735
H     -0.289199    -0.234160    -0.168983
C      1.438373     2.336499    -1.191555
H      1.618693     2.317870    -2.274937
H      1.558537     3.357356    -0.819209
C      0.045740     1.785261    -0.879374
H     -0.723541     2.149139    -1.569393
O     -0.323490     2.084367     0.469455
P     -0.824881     3.655788     0.784124
O     -1.301100     4.291042    -0.508419
O      0.204999     4.300183     1.682506
O     -2.153431     3.240287     1.713677
C     -3.400543     3.903273     1.493026
H     -4.174851     3.128624     1.412179
H     -3.363801     4.473233     0.555347
C     -3.754827     4.821604     2.650749
H     -4.677605     5.356799     2.383969
O     -4.071444     4.088558     3.850319
C     -2.824807     3.838304     4.540294
H     -3.070199     3.808877     5.607856
H     -2.426301     2.867630     4.227943
C     -1.865522     4.978361     4.154604
H     -0.932382     4.588778     3.740832
H     -1.634145     5.615732     5.016309
C     -2.625016     5.765737     3.068915
H     -1.970034     6.034412     2.234335
H     -3.062145     6.683006     3.481719
