32
Energy = -1142.554301080 Hartree (EUMP2 CORRECTED)
O      1.710717     0.338898     0.517589
C      0.743006    -0.058228    -0.484313
H      0.540991    -1.122002    -0.324439
H      1.159680     0.093477    -1.487338
C      1.461116     1.722309     0.856809
H      1.257341     1.775140     1.935113
H      2.346185     2.323158     0.620189
C     -0.448971     0.854991    -0.257793
H     -1.019429     0.532080     0.623694
H     -1.110296     0.939597    -1.124477
C      0.260307     2.178908     0.034230
H     -0.372954     2.907530     0.555586
O      0.767156     2.759324    -1.170427
P     -0.392234     3.500059    -2.169351
O     -1.278226     4.330215    -1.261875
O     -0.949751     2.470714    -3.122938
O      0.642412     4.506684    -2.998910
C      2.044267     4.597690    -2.807679
H      2.373485     3.880294    -2.050745
H      2.523340     4.329684    -3.760833
C      2.487306     6.039879    -2.411248
H      3.111709     6.464460    -3.206907
O      1.413733     6.960160    -2.240923
C      0.890360     6.791599    -0.896817
H      0.753015     7.802184    -0.492891
H     -0.066524     6.264675    -0.946813
C      1.951155     5.985376    -0.123392
H      1.616060     4.949816    -0.007009
H      2.148710     6.398436     0.872584
C      3.176941     6.044688    -1.047668
H      3.868378     5.205666    -0.905965
H      3.728456     6.983871    -0.912722
