32
Energy = -1142.561411697 Hartree (EUMP2 CORRECTED)
O     -0.494992    -0.753269    -1.044836
C      0.289691    -0.339906    -2.195575
H     -0.390558    -0.255409    -3.054774
H      1.023556    -1.124840    -2.410387
C     -0.490528     0.327904    -0.092198
H     -1.478813     0.368465     0.375749
H      0.275737     0.170851     0.679449
C      0.926115     0.996782    -1.832892
H      1.131583     1.627900    -2.701170
H      1.865380     0.874627    -1.288976
C     -0.131549     1.577097    -0.890673
H     -1.002918     1.905985    -1.480911
O      0.211303     2.617538     0.004681
P      1.522729     3.677766    -0.101946
O      0.950202     5.056755    -0.348410
O      2.640076     3.070374    -0.910367
O      1.986192     3.571529     1.496541
C      1.140731     4.155129     2.490557
H      0.760021     3.349713     3.132296
H      0.297631     4.682077     2.024081
C      1.946169     5.139096     3.321693
H      1.286707     5.568313     4.089801
O      3.000613     4.465512     4.048238
C      4.197874     4.597727     3.259081
H      5.039613     4.407048     3.933015
H      4.191089     3.866361     2.443892
C      4.135192     6.025525     2.726394
H      4.743208     6.164779     1.825864
H      4.489075     6.721162     3.497208
C      2.632692     6.220531     2.458103
H      2.384187     6.069235     1.403764
H      2.296209     7.223882     2.742778
