32
Energy = -1142.571488980 Hartree (EUMP2 CORRECTED)
O      0.484586    -0.520431    -0.276327
C      1.415689     0.312708    -1.006785
H      2.037439    -0.358283    -1.607849
H      2.046252     0.872548    -0.305160
C     -0.734807     0.231882    -0.094248
H     -1.556826    -0.344665    -0.540729
H     -0.922897     0.376586     0.974733
C      0.540689     1.254308    -1.812085
H      0.092969     0.719678    -2.661635
H      1.051159     2.157399    -2.153780
C     -0.550196     1.582385    -0.788206
H     -1.479535     1.950537    -1.246171
O     -0.100347     2.496996     0.213061
P      0.211206     4.108950    -0.199299
O     -1.113866     4.844977    -0.196940
O      1.195093     4.185269    -1.341470
O      1.056401     4.462654     1.185216
C      0.338103     4.530595     2.420940
H      0.714793     3.734926     3.076218
H     -0.738005     4.389096     2.253869
C      0.569635     5.885955     3.066711
H      0.021561     5.914287     4.019512
O      1.962086     6.065731     3.414813
C      2.568456     6.798637     2.333560
H      3.495473     7.227817     2.727780
H      2.788177     6.122793     1.500219
C      1.515251     7.833051     1.949476
H      1.643847     8.202861     0.926415
H      1.569121     8.685409     2.637768
C      0.197398     7.060154     2.134302
H     -0.186698     6.677043     1.184554
H     -0.581028     7.687238     2.583438
