32
Energy = -1142.571114345 Hartree (EUMP2 CORRECTED)
O      1.816816    -0.243312     0.379831
C      2.545881     0.989029     0.394752
H      3.582316     0.761560     0.128088
H      2.515389     1.440114     1.399002
C      0.420866     0.153538     0.428146
H     -0.162988    -0.639520    -0.039507
H      0.105642     0.270794     1.469614
C      1.796831     1.853106    -0.610788
H      2.060442     1.536967    -1.627223
H      1.968345     2.928787    -0.507339
C      0.333510     1.513024    -0.304636
H     -0.272448     1.426303    -1.215893
O     -0.197976     2.561584     0.509224
P     -1.755945     2.384259     1.131561
O     -1.726321     2.979814     2.519737
O     -2.267186     1.008734     0.781145
O     -2.568413     3.443328     0.120391
C     -2.319791     4.842819     0.270442
H     -1.856744     5.210429    -0.654929
H     -1.645623     5.031538     1.116808
C     -3.634107     5.566844     0.508099
H     -3.427248     6.642545     0.604564
O     -4.510069     5.441376    -0.636710
C     -5.400609     4.344259    -0.358769
H     -6.256854     4.457709    -1.031832
H     -4.891801     3.393072    -0.548074
C     -5.740805     4.508740     1.118752
H     -6.085812     3.575401     1.576906
H     -6.527240     5.264930     1.232754
C     -4.412274     5.002499     1.717353
H     -3.845610     4.188475     2.178180
H     -4.571552     5.774735     2.478431
