32
Energy = -1142.563599739 Hartree (EUMP2 CORRECTED)
O      1.746847     0.416041    -1.106055
C      0.588394     0.356595    -1.976597
H      0.609699    -0.617772    -2.476032
H      0.652897     1.154790    -2.724945
C      1.364983     1.083837     0.118365
H      1.404362     0.356825     0.942749
H      2.067020     1.900380     0.315494
C     -0.612496     0.572198    -1.069926
H     -0.869237    -0.351474    -0.533473
H     -1.490517     0.954203    -1.597805
C     -0.048504     1.602853    -0.090661
H     -0.625726     1.689855     0.837941
O      0.064655     2.883265    -0.714252
P     -1.386918     3.736273    -0.923255
O     -2.182925     3.605181     0.354248
O     -1.959744     3.376839    -2.277655
O     -0.709541     5.257405    -1.024300
C      0.682689     5.548390    -0.937451
H      1.204950     4.764952    -0.381525
H      0.763847     6.485542    -0.373181
C      1.385552     5.713964    -2.304584
H      1.442982     6.779129    -2.558426
O      2.766120     5.288416    -2.165202
C      2.793499     3.922205    -2.623340
H      3.844242     3.662805    -2.783562
H      2.356034     3.252873    -1.871263
C      1.937396     3.951851    -3.881334
H      1.576649     2.959845    -4.174086
H      2.521112     4.370294    -4.710624
C      0.791157     4.894628    -3.469814
H     -0.097754     4.339668    -3.163078
H      0.491176     5.552685    -4.292770
