32
Energy = -1142.574806886 Hartree (EUMP2 CORRECTED)
O      0.269103    -0.211562     1.125903
C      1.238168     0.853807     1.032724
H      2.195026     0.441636     1.367806
H      0.946984     1.688430     1.684424
C     -0.771133     0.058427     0.154605
H     -0.906747    -0.853999    -0.439065
H     -1.704958     0.311733     0.667145
C      1.199354     1.273460    -0.426680
H      1.711288     0.524375    -1.046224
H      1.609002     2.266712    -0.625025
C     -0.306346     1.240287    -0.699766
H     -0.559961     1.124944    -1.759547
O     -0.938212     2.419040    -0.185621
P     -1.104700     3.730781    -1.209905
O     -1.955778     4.758398    -0.509883
O     -1.374486     3.199418    -2.603070
O      0.504492     4.251930    -1.186909
C      0.793701     5.642823    -1.033159
H      1.555487     5.736685    -0.247069
H     -0.110171     6.181522    -0.719553
C      1.345911     6.242916    -2.314553
H      1.482823     7.321267    -2.148649
O      2.658794     5.736077    -2.630091
C      2.483531     4.527286    -3.402462
H      3.340068     4.475365    -4.084225
H      2.500078     3.661957    -2.731146
C      1.126779     4.644158    -4.118970
H      0.476319     3.799402    -3.880252
H      1.251912     4.700718    -5.206865
C      0.510605     5.941297    -3.560893
H     -0.552493     5.815373    -3.333436
H      0.622269     6.767538    -4.273409
