32
Energy = -1142.570190628 Hartree (EUMP2 CORRECTED)
O      1.260145     0.219203     0.863502
C      1.862447     1.072642    -0.134540
H      2.675218     0.498785    -0.590883
H      2.268136     1.976873     0.337935
C     -0.124220     0.624648     1.012214
H     -0.742930    -0.274065     0.894727
H     -0.279816     1.061717     2.004076
C      0.720461     1.423047    -1.074097
H      0.486777     0.565778    -1.720113
H      0.880834     2.317552    -1.682780
C     -0.409430     1.663797    -0.072627
H     -1.408344     1.537064    -0.500022
O     -0.266195     2.962402     0.510810
P     -1.188983     4.229787    -0.094958
O     -0.757697     4.513132    -1.520880
O     -1.269506     5.252275     1.003133
O     -2.673370     3.425876    -0.193551
C     -3.284761     3.250662    -1.465802
H     -2.570407     2.851183    -2.195058
H     -3.660936     4.209674    -1.856301
C     -4.438875     2.286578    -1.269310
H     -4.944589     2.132046    -2.233277
O     -3.939750     0.984623    -0.869301
C     -4.176792     0.847693     0.541512
H     -4.152528    -0.223613     0.765384
H     -3.394238     1.369828     1.106653
C     -5.534605     1.505526     0.749684
H     -5.727856     1.767878     1.795908
H     -6.327498     0.830846     0.404319
C     -5.418667     2.733621    -0.162575
H     -4.984138     3.574118     0.386744
H     -6.383927     3.045657    -0.576817
