32
Energy = -1142.571373602 Hartree (EUMP2 CORRECTED)
O      1.560824     0.076639     0.044178
C      1.966825     1.386856     0.501733
H      3.060693     1.406166     0.472355
H      1.622020     1.549217     1.530914
C      0.251927     0.207184    -0.559168
H      0.307905    -0.225212    -1.566666
H     -0.489222    -0.334796     0.037842
C      1.287409     2.353582    -0.451946
H      1.806243     2.357295    -1.420321
H      1.186914     3.374231    -0.071835
C     -0.087201     1.697197    -0.595587
H     -0.614724     1.991300    -1.508798
O     -0.906668     1.969744     0.550167
P     -1.684585     3.445680     0.675008
O     -0.674875     4.560775     0.844851
O     -2.860663     3.249598     1.601853
O     -2.235502     3.474077    -0.920613
C     -3.257400     4.414205    -1.246275
H     -2.861264     5.101043    -2.005623
H     -3.562742     4.997430    -0.365627
C     -4.465645     3.678728    -1.801078
H     -5.213994     4.422202    -2.114102
O     -4.104697     2.955408    -3.004748
C     -3.960557     1.572796    -2.639833
H     -4.047265     0.991098    -3.563503
H     -2.978585     1.405920    -2.180679
C     -5.080974     1.336765    -1.635975
H     -4.918610     0.447408    -1.016748
H     -6.033073     1.223970    -2.169654
C     -5.047440     2.637519    -0.821574
H     -4.397770     2.544832     0.054749
H     -6.042844     2.934711    -0.472339
