32
Energy = -1142.566157537 Hartree (EUMP2 CORRECTED)
O      2.274112     1.202195     0.130673
C      1.683843     0.664598    -1.078814
H      2.126012    -0.323935    -1.242201
H      1.931375     1.317603    -1.925210
C      1.250278     1.917068     0.861011
H      1.057544     1.384534     1.803628
H      1.602679     2.930383     1.075626
C      0.184637     0.649383    -0.829598
H     -0.096222    -0.217154    -0.215059
H     -0.419569     0.679263    -1.740418
C      0.014149     1.939771    -0.025805
H     -0.918448     1.983108     0.552614
O      0.118651     3.082558    -0.876277
P     -1.312726     3.530656    -1.688387
O     -2.339130     3.936657    -0.662343
O     -1.558740     2.485393    -2.758603
O     -0.686290     4.910414    -2.360474
C      0.439985     4.792269    -3.232185
H      0.121238     5.200366    -4.201021
H      0.726989     3.744274    -3.384923
C      1.633445     5.611515    -2.711349
H      2.186269     5.970888    -3.591886
O      1.221370     6.791832    -2.007475
C      1.275617     6.455963    -0.608634
H      1.248297     7.401320    -0.057809
H      0.412855     5.836003    -0.339469
C      2.585876     5.684913    -0.479770
H      2.636404     5.075171     0.429030
H      3.427206     6.388915    -0.474913
C      2.579153     4.834388    -1.762692
H      2.175814     3.842086    -1.551480
H      3.579817     4.725880    -2.195827
