32
Energy = -1142.573278832 Hartree (EUMP2 CORRECTED)
O      2.162057     0.413766    -0.185160
C      2.479354     1.784079     0.147394
H      3.546979     1.918661    -0.052557
H      2.276702     1.968451     1.210345
C      0.773148     0.367527    -0.593401
H      0.735577    -0.103715    -1.583957
H      0.194209    -0.224635     0.122391
C      1.557537     2.612734    -0.730136
H      1.920754     2.610690    -1.767002
H      1.394795     3.641674    -0.401465
C      0.263284     1.808524    -0.626322
H     -0.430732     1.986354    -1.456629
O     -0.387522     2.061025     0.624478
P     -1.448379     3.347919     0.671756
O     -0.933514     4.482165    -0.192460
O     -1.862900     3.516467     2.111945
O     -2.687131     2.575796    -0.175052
C     -3.569631     3.364149    -0.973822
H     -3.566224     2.947439    -1.990374
H     -3.225539     4.406303    -1.023480
C     -4.982241     3.291775    -0.418795
H     -5.642160     3.885603    -1.069089
O     -5.480239     1.932706    -0.493602
C     -5.362537     1.372927     0.826943
H     -6.027960     0.504066     0.861529
H     -4.326295     1.066521     1.012389
C     -5.768721     2.518232     1.744112
H     -5.430593     2.378970     2.776677
H     -6.861036     2.623737     1.738398
C     -5.086417     3.713350     1.063108
H     -4.091594     3.863225     1.493442
H     -5.658452     4.641556     1.174514
