32
Energy = -1142.567712896 Hartree (EUMP2 CORRECTED)
O      1.709322    -0.210752    -0.003101
C      1.002626    -0.144846    -1.264433
H      1.066970    -1.140125    -1.715225
H      1.478925     0.591366    -1.923616
C      1.083209     0.722425     0.908142
H      0.762785     0.160772     1.795913
H      1.803336     1.494483     1.198970
C     -0.403547     0.296812    -0.898173
H     -0.965805    -0.539219    -0.460368
H     -0.960865     0.730132    -1.733257
C     -0.101355     1.344920     0.175232
H     -0.952434     1.555839     0.834438
O      0.358684     2.561644    -0.420212
P     -0.841095     3.533880    -1.115758
O     -1.999429     3.649603    -0.155391
O     -1.009964     3.107003    -2.560519
O      0.020665     4.958756    -1.079587
C      1.445502     4.963300    -1.179349
H      1.818798     4.069276    -1.690973
H      1.867699     4.987542    -0.163229
C      1.888947     6.199009    -1.955940
H      2.928841     6.430524    -1.690365
O      1.899728     5.970412    -3.375971
C      0.524933     6.101525    -3.810867
H      0.567251     6.371646    -4.870978
H      0.005359     5.145200    -3.690317
C     -0.092669     7.195106    -2.917392
H     -1.051109     6.860581    -2.514186
H     -0.250486     8.126414    -3.474014
C      0.940968     7.392543    -1.788003
H      0.473969     7.412340    -0.798907
H      1.505900     8.320901    -1.933786
