32
Energy = -1142.563099958 Hartree (EUMP2 CORRECTED)
O      1.886822     0.632014    -0.605468
C      1.912579     1.853395    -1.378117
H      2.595944     1.683858    -2.215843
H      2.288584     2.682681    -0.767296
C      0.627035     0.604202     0.106904
H      0.199695    -0.396093    -0.033887
H      0.792640     0.788926     1.174415
C      0.464056     2.082345    -1.769830
H      0.178686     1.386750    -2.571104
H      0.246124     3.109101    -2.069687
C     -0.262225     1.708130    -0.477609
H     -1.291515     1.380683    -0.655107
O     -0.271750     2.793003     0.462769
P     -1.461174     3.975219     0.268960
O     -1.651263     4.577916     1.639628
O     -2.549364     3.427509    -0.619781
O     -0.622677     5.092317    -0.680533
C      0.356180     5.886189    -0.022145
H      0.080511     6.936734    -0.202324
H      0.329582     5.728158     1.062739
C      1.783456     5.631768    -0.555869
H      2.318503     4.922485     0.082538
O      1.796774     5.054386    -1.870734
C      1.407845     6.110592    -2.760010
H      1.818290     5.862934    -3.743519
H      0.312889     6.144858    -2.820518
C      1.989317     7.408609    -2.153616
H      1.212592     8.172844    -2.047108
H      2.785308     7.831691    -2.775515
C      2.526981     6.952378    -0.781721
H      2.347994     7.685989     0.013900
H      3.604312     6.759379    -0.831844
