32
Energy = -1142.563708728 Hartree (EUMP2 CORRECTED)
O      1.956829     0.599473     0.092678
C      1.251162     0.211945    -1.111644
H      1.516138    -0.830444    -1.317346
H      1.577144     0.843965    -1.947379
C      1.105360     1.489872     0.852309
H      0.862094     1.002882     1.807327
H      1.638089     2.426991     1.041347
C     -0.219891     0.440895    -0.808427
H     -0.618213    -0.377388    -0.192609
H     -0.840093     0.584127    -1.697546
C     -0.143344     1.729199     0.013942
H     -1.034335     1.917978     0.627614
O      0.119546     2.850601    -0.827871
P     -1.230189     3.522992    -1.627460
O     -2.207373     4.018474    -0.594612
O     -1.601544     2.574188    -2.751037
O     -0.395822     4.822827    -2.239604
C      0.697318     4.509504    -3.095752
H      1.164146     3.572448    -2.769750
H      0.348967     4.363045    -4.129246
C      1.733187     5.641278    -3.071254
H      1.448427     6.449836    -3.752299
O      1.878417     6.253587    -1.786693
C      2.547478     5.273563    -0.973090
H      3.046215     5.823515    -0.169431
H      1.805964     4.587391    -0.549709
C      3.523842     4.539230    -1.921908
H      3.398216     3.454651    -1.840387
H      4.569799     4.769882    -1.692641
C      3.129839     5.059565    -3.322776
H      3.134679     4.272425    -4.087017
H      3.806567     5.857724    -3.647788
