32
Energy = -1142.572134384 Hartree (EUMP2 CORRECTED)
O      2.033236     0.471888     0.525406
C      2.199490     1.906445     0.592251
H      3.270655     2.105376     0.487966
H      1.847024     2.281492     1.561547
C      0.714936     0.205620    -0.009325
H      0.836942    -0.464021    -0.870546
H      0.094278    -0.277369     0.752624
C      1.339631     2.445349    -0.537430
H      1.833505     2.273170    -1.503650
H      1.063437     3.498518    -0.434124
C      0.106488     1.548259    -0.413436
H     -0.484280     1.488414    -1.333509
O     -0.733307     1.970076     0.669891
P     -1.727014     3.299306     0.482500
O     -0.910696     4.565948     0.317990
O     -2.835192     3.164498     1.498210
O     -2.297640     2.865831    -1.045081
C     -2.964034     3.869835    -1.809651
H     -2.393476     4.034444    -2.733577
H     -3.013444     4.821710    -1.262589
C     -4.362878     3.390215    -2.154934
H     -4.853547     4.155217    -2.775158
O     -4.293102     2.201093    -2.981633
C     -4.564870     1.077618    -2.125779
H     -4.859768     0.248464    -2.777391
H     -3.664183     0.812313    -1.559066
C     -5.666828     1.578812    -1.202209
H     -5.765511     0.979523    -0.290385
H     -6.625196     1.569371    -1.736625
C     -5.200422     3.012993    -0.914148
H     -4.579742     3.039823    -0.012153
H     -6.039852     3.704000    -0.775852
