32
Energy = -1142.567592481 Hartree (EUMP2 CORRECTED)
O      1.541156    -0.640578    -0.079904
C      1.717885     0.167810    -1.265090
H      1.881069    -0.524014    -2.096846
H      2.581846     0.829635    -1.137845
C      0.998957     0.274811     0.886339
H      0.548721    -0.321488     1.684700
H      1.785881     0.921913     1.293085
C      0.433524     0.989280    -1.364716
H      0.588208     1.960585    -1.835906
H     -0.328989     0.439768    -1.929802
C     -0.016156     1.134532     0.110290
H     -1.018579     0.706148     0.223690
O     -0.159892     2.445447     0.652953
P      0.985695     3.650418     0.448715
O      2.226028     3.058635    -0.193949
O      0.990187     4.451707     1.723401
O      0.188507     4.588830    -0.694594
C      0.741333     4.775630    -1.996954
H     -0.048035     4.564526    -2.731824
H      1.587709     4.093292    -2.153800
C      1.215201     6.208374    -2.179201
H      1.701086     6.284466    -3.162682
O      0.122230     7.144914    -2.216304
C     -0.182506     7.505927    -0.848163
H     -0.550782     8.537455    -0.882832
H     -0.968345     6.846614    -0.466258
C      1.116758     7.337259    -0.040110
H      0.960831     6.671040     0.812008
H      1.488074     8.301831     0.326018
C      2.107183     6.704812    -1.038385
H      2.690402     5.895099    -0.588127
H      2.800984     7.457932    -1.431267
