32
Energy = -1142.568831555 Hartree (EUMP2 CORRECTED)
O      0.563588    -0.275799     0.523301
C      1.685080     0.537636     0.125625
H      2.488094    -0.148404    -0.160688
H      2.016298     1.166522     0.963077
C     -0.629937     0.525782     0.348721
H     -1.360654    -0.095997    -0.181907
H     -1.030676     0.823275     1.323490
C      1.141728     1.395307    -1.005007
H      1.037040     0.792019    -1.917096
H      1.734914     2.288906    -1.213811
C     -0.233992     1.775539    -0.447597
H     -0.975021     2.024766    -1.216458
O     -0.105043     2.863050     0.470106
P     -0.432424     4.411548    -0.098822
O     -0.260290     5.331494     1.074283
O     -1.661942     4.335134    -0.985122
O      0.895377     4.638506    -1.120371
C      0.709383     4.558182    -2.534368
H     -0.148759     3.929507    -2.796195
H      1.626902     4.124839    -2.952019
C      0.536553     5.954714    -3.114438
H      1.191330     6.643518    -2.561513
O      0.983462     5.908731    -4.506045
C      0.077835     6.662912    -5.332189
H      0.673467     7.291413    -6.004857
H     -0.517551     5.965590    -5.939819
C     -0.809087     7.447625    -4.371216
H     -1.785045     7.695966    -4.804020
H     -0.318016     8.382356    -4.072823
C     -0.890228     6.483759    -3.189183
H     -1.579630     5.657141    -3.393516
H     -1.209485     6.943032    -2.249924
