32
Energy = -1142.571035202 Hartree (EUMP2 CORRECTED)
O      0.989737     0.000782     0.531792
C      1.859460     1.155074     0.491429
H      2.886631     0.777817     0.515485
H      1.679161     1.792686     1.366248
C     -0.228623     0.337975    -0.173647
H     -0.375461    -0.412903    -0.960990
H     -1.076082     0.320428     0.519383
C      1.478281     1.880787    -0.786982
H      1.884039     1.351774    -1.660014
H      1.780574     2.931418    -0.808916
C     -0.045557     1.739560    -0.750786
H     -0.521589     1.863705    -1.731463
O     -0.623282     2.658696     0.182671
P     -0.734402     4.247629    -0.348054
O     -1.397704     4.265968    -1.707573
O      0.574782     4.977553    -0.099091
O     -1.796944     4.640758     0.873504
C     -2.016165     6.029763     1.128051
H     -3.063046     6.261532     0.894345
H     -1.359526     6.659117     0.510756
C     -1.738923     6.309423     2.595874
H     -1.939473     7.372339     2.794657
O     -2.657613     5.575252     3.438183
C     -1.974999     4.376478     3.852932
H     -2.506211     4.003367     4.734729
H     -2.002511     3.632710     3.049302
C     -0.549499     4.840533     4.130581
H      0.174887     4.019471     4.091640
H     -0.500135     5.302864     5.124298
C     -0.316938     5.882955     3.023714
H      0.217188     5.454778     2.169954
H      0.258492     6.741935     3.387646
