32
Energy = -1142.568286116 Hartree (EUMP2 CORRECTED)
O      1.482169     0.106641     0.127816
C      1.717353     1.351017    -0.571276
H      2.560654     1.178760    -1.247186
H      1.968509     2.145657     0.141881
C      0.078981     0.055116     0.473991
H     -0.323589    -0.889421     0.084267
H     -0.039144     0.089254     1.562147
C      0.400565     1.655985    -1.263812
H      0.270813     1.002640    -2.137952
H      0.291781     2.706134    -1.549101
C     -0.594731     1.269791    -0.166246
H     -1.593625     1.039137    -0.555235
O     -0.686480     2.276040     0.841954
P     -1.369695     3.778178     0.489387
O     -0.331793     4.609703    -0.229132
O     -2.135347     4.218498     1.709797
O     -2.454722     3.271003    -0.703138
C     -3.848495     3.492629    -0.489500
H     -4.035393     4.515482    -0.143990
H     -4.233356     2.798721     0.274977
C     -4.567579     3.252391    -1.804622
H     -5.648980     3.244387    -1.611956
O     -4.353328     4.310561    -2.753740
C     -3.100717     4.038370    -3.421210
H     -3.188115     4.477493    -4.420684
H     -2.281722     4.514016    -2.873858
C     -2.940708     2.504879    -3.433288
H     -1.969295     2.226348    -3.019826
H     -3.018840     2.098585    -4.448588
C     -4.087405     1.994187    -2.537243
H     -3.758635     1.215367    -1.841379
H     -4.906983     1.593312    -3.145386
