32
Energy = -1142.559432076 Hartree (EUMP2 CORRECTED)
O      1.010109    -0.401372     0.731151
C      1.950008     0.551140     0.203276
H      2.865231    -0.000543    -0.030795
H      2.165775     1.331662     0.945900
C     -0.302648     0.188141     0.579618
H     -0.972755    -0.608410     0.238354
H     -0.654569     0.589446     1.536087
C      1.232230     1.142009    -0.999937
H      1.227280     0.413852    -1.822628
H      1.651375     2.092155    -1.343098
C     -0.177945     1.342953    -0.432440
H     -0.975931     1.290382    -1.180409
O     -0.230135     2.564231     0.286029
P     -0.953362     3.974901    -0.293605
O     -0.310263     5.112721     0.444626
O     -2.438270     3.684861    -0.371444
O     -0.435310     4.132795    -1.893657
C     -0.669287     3.188678    -2.927322
H     -1.649973     2.707698    -2.805915
H      0.120720     2.424482    -2.943468
C     -0.644514     3.927491    -4.259063
H     -0.568017     3.186946    -5.067268
O     -1.856284     4.652205    -4.514877
C     -1.748348     5.914668    -3.817042
H     -2.349361     6.629094    -4.389405
H     -2.159837     5.809279    -2.808996
C     -0.246498     6.261312    -3.777375
H      0.067590     6.459228    -2.750515
H     -0.019363     7.138344    -4.394762
C      0.450354     4.998253    -4.323776
H      1.330336     4.725466    -3.732794
H      0.754272     5.138932    -5.368023
