32
Energy = -1142.566551030 Hartree (EUMP2 CORRECTED)
O      0.502466    -0.189537     1.155711
C     -0.208922     0.969890     1.630822
H      0.412692     1.533361     2.338913
H     -1.109292     0.606548     2.137190
C      1.247726     0.195812    -0.030421
H      2.322333     0.124298     0.162400
H      0.961848    -0.494945    -0.834465
C     -0.471574     1.790553     0.377667
H     -0.697308     2.843756     0.568000
H     -1.279395     1.333862    -0.209694
C      0.863668     1.644527    -0.349884
H      0.785210     1.834429    -1.423482
O      1.780918     2.544160     0.269193
P      2.964568     3.355045    -0.612864
O      4.137867     2.422284    -0.831356
O      3.056792     4.735053    -0.023566
O      2.160729     3.474055    -2.095349
C      2.605005     2.671606    -3.183880
H      2.627526     1.608344    -2.913273
H      3.621739     2.957636    -3.491274
C      1.627024     2.896965    -4.320645
H      1.945170     2.303896    -5.189860
O      0.314826     2.395348    -3.957725
C     -0.499003     3.530103    -3.616899
H     -1.542216     3.209808    -3.703796
H     -0.285817     3.849967    -2.589192
C     -0.080432     4.595187    -4.622065
H     -0.363908     5.608355    -4.315739
H     -0.537485     4.381705    -5.596056
C      1.439607     4.389613    -4.669120
H      1.928873     5.003222    -3.906949
H      1.868565     4.634772    -5.647103
