32
Energy = -1142.572410388 Hartree (EUMP2 CORRECTED)
O      1.153290     0.196928     0.450831
C      1.833802     1.239533    -0.282982
H      2.653405     0.758966    -0.826460
H      2.239407     1.985628     0.412977
C     -0.222448     0.614286     0.627713
H     -0.862683    -0.203034     0.271951
H     -0.417447     0.806731     1.688217
C      0.755779     1.849345    -1.160888
H      0.525085     1.174620    -1.996842
H      0.970997     2.848635    -1.545863
C     -0.421203     1.895233    -0.187271
H     -1.398000     1.918108    -0.684425
O     -0.291243     3.000284     0.718456
P     -0.919124     4.473005     0.206623
O     -0.690315     4.622779    -1.284280
O     -0.521893     5.479067     1.249646
O     -2.550537     4.097353     0.434556
C     -3.450186     4.129423    -0.666557
H     -2.929088     3.891475    -1.600227
H     -3.896301     5.134007    -0.767355
C     -4.547508     3.118474    -0.389277
H     -5.274072     3.143628    -1.214357
O     -4.003202     1.775577    -0.380243
C     -3.870215     1.377564     0.994916
H     -3.809689     0.284519     1.004945
H     -2.959517     1.811898     1.425439
C     -5.118629     1.944601     1.658249
H     -5.033138     2.007524     2.748955
H     -5.984375     1.318671     1.409466
C     -5.221878     3.320517     0.986591
H     -4.661031     4.065045     1.559351
H     -6.257373     3.664471     0.884453
