32
Energy = -1142.573402769 Hartree (EUMP2 CORRECTED)
O      0.060703    -0.280573     1.096972
C      1.213282     0.429228     0.588805
H      2.062901    -0.257271     0.658668
H      1.406689     1.319912     1.200090
C     -1.112144     0.238076     0.423760
H     -1.632798    -0.611845    -0.036776
H     -1.769369     0.727778     1.149583
C      0.827199     0.823505    -0.826091
H      0.881533    -0.047037    -1.493990
H      1.417439     1.642245    -1.244555
C     -0.629297     1.242045    -0.621159
H     -1.213052     1.220059    -1.547039
O     -0.697972     2.539099    -0.022135
P     -0.474364     3.875660    -1.016584
O     -1.415886     4.957323    -0.543180
O     -0.368025     3.389566    -2.444128
O      1.080794     4.287939    -0.542044
C      1.320108     5.410707     0.304365
H      1.981450     5.076956     1.114827
H      0.376997     5.784184     0.724265
C      2.010365     6.514332    -0.482014
H      2.239371     7.340850     0.206698
O      3.288120     6.061369    -0.986760
C      3.069751     5.637836    -2.347010
H      4.052328     5.620168    -2.830054
H      2.618312     4.640414    -2.361665
C      2.113651     6.682095    -2.912215
H      1.555172     6.311935    -3.778336
H      2.676187     7.575759    -3.209486
C      1.200125     6.982083    -1.711639
H      0.256843     6.434573    -1.777501
H      0.958599     8.048638    -1.639594
