32
Energy = -1142.566699450 Hartree (EUMP2 CORRECTED)
O      1.239265    -0.085246     0.250495
C      1.939839     1.161773     0.069970
H      2.992891     0.912393    -0.094348
H      1.843366     1.786267     0.968582
C     -0.142033     0.134505    -0.130599
H     -0.419355    -0.673875    -0.817822
H     -0.784347     0.108275     0.755653
C      1.243285     1.813859    -1.112502
H      1.542854     1.318171    -2.046377
H      1.398466     2.890698    -1.193354
C     -0.222322     1.514380    -0.791130
H     -0.879338     1.526399    -1.667819
O     -0.708259     2.441782     0.183882
P     -1.595042     3.757795    -0.353375
O     -2.226041     4.379521     0.860981
O     -2.349650     3.361247    -1.608915
O     -0.282163     4.708028    -0.856328
C     -0.550599     5.590658    -1.943113
H     -1.223332     6.391527    -1.600667
H     -1.038782     5.061762    -2.773036
C      0.765340     6.195704    -2.410073
H      0.524504     7.079983    -3.018478
O      1.588620     6.678489    -1.336959
C      2.587840     5.678549    -1.094760
H      3.399794     6.167750    -0.547666
H      2.163690     4.871402    -0.486385
C      2.977091     5.199033    -2.493008
H      3.466033     4.217851    -2.488322
H      3.661922     5.923733    -2.949303
C      1.620900     5.193804    -3.219975
H      1.163914     4.199335    -3.180773
H      1.704138     5.486660    -4.271805
