32
Energy = -1142.572691319 Hartree (EUMP2 CORRECTED)
O      2.225168    -0.242856     0.268648
C      1.488999     0.377655     1.339814
H      2.065786     1.207678     1.769168
H      1.325354    -0.391573     2.101251
C      1.920340     0.478112    -0.954145
H      2.804827     1.018298    -1.303661
H      1.617565    -0.263383    -1.703425
C      0.223993     0.892580     0.670567
H     -0.306129     1.663430     1.237138
H     -0.452617     0.054602     0.456455
C      0.796039     1.465627    -0.624442
H      0.070522     1.536611    -1.440591
O      1.343151     2.749681    -0.316915
P      1.206021     3.957338    -1.472589
O      1.024470     3.300910    -2.828492
O      2.250584     4.987473    -1.142069
O     -0.268578     4.624363    -1.014056
C     -1.439507     4.412329    -1.802789
H     -2.241669     4.076211    -1.130964
H     -1.251331     3.650449    -2.570877
C     -1.868083     5.705027    -2.478027
H     -2.728876     5.484566    -3.125826
O     -2.337348     6.684695    -1.532483
C     -1.182189     7.415812    -1.056678
H     -1.533277     8.432694    -0.847422
H     -0.816633     6.954564    -0.133923
C     -0.116318     7.343997    -2.165531
H      0.815382     6.926132    -1.776572
H      0.090507     8.334806    -2.587259
C     -0.731119     6.406946    -3.224518
H     -0.003896     5.694282    -3.626313
H     -1.155199     6.983873    -4.055395
