32
Energy = -1142.559336695 Hartree (EUMP2 CORRECTED)
O      1.187027    -0.208607     0.066688
C      1.958231     1.008072     0.049649
H      2.999714     0.720762    -0.125312
H      1.874167     1.527509     1.014094
C     -0.176757     0.143737    -0.274979
H     -0.512755    -0.572675    -1.033703
H     -0.816697     0.077622     0.611031
C      1.325143     1.833379    -1.058506
H      1.619206     1.432493    -2.038654
H      1.545423     2.901733    -1.008240
C     -0.162877     1.587778    -0.792802
H     -0.803120     1.713738    -1.673977
O     -0.607924     2.446505     0.257801
P     -1.511518     3.800035    -0.174016
O     -1.891269     4.463277     1.117556
O     -2.470763     3.400293    -1.278134
O     -0.281369     4.712248    -0.900541
C     -0.449779     5.065112    -2.269292
H     -0.597692     4.183129    -2.907634
H     -1.346917     5.689980    -2.370521
C      0.782432     5.855227    -2.738249
H      0.437678     6.566164    -3.502033
O      1.384356     6.659634    -1.717973
C      2.469724     5.888239    -1.185889
H      3.110956     6.581673    -0.633660
H      2.078747     5.122322    -0.505680
C      3.125781     5.279702    -2.426203
H      3.732070     4.395115    -2.198548
H      3.772153     6.026533    -2.901458
C      1.908379     4.961132    -3.316888
H      1.635385     3.903781    -3.241880
H      2.097585     5.181651    -4.372708
