32
Energy = -1142.554406826 Hartree (EUMP2 CORRECTED)
O      1.767899     0.805846    -0.555805
C      2.093968     2.215720    -0.494608
H      3.062979     2.350565    -0.987871
H      2.157182     2.525956     0.555219
C      0.349309     0.679500    -0.807279
H      0.200750     0.349391    -1.848564
H     -0.055934    -0.062806    -0.126078
C      0.935601     2.912484    -1.195704
H      1.023373     2.816080    -2.287005
H      0.826456     3.965592    -0.922247
C     -0.239415     2.081537    -0.670543
H     -1.147845     2.180305    -1.284266
O     -0.520177     2.580028     0.625040
P     -0.678627     1.983876     2.187510
O     -2.121542     2.161813     2.601292
O      0.504140     2.511659     2.958821
O     -0.399365     0.342479     1.970808
C     -1.508908    -0.551618     1.958156
H     -2.025504    -0.520911     0.986210
H     -2.233637    -0.277266     2.735826
C     -0.952532    -1.943263     2.193311
H     -1.784586    -2.661545     2.215224
O     -0.112283    -2.344551     1.084199
C      1.257090    -2.144034     1.492393
H      1.873394    -2.761321     0.831116
H      1.532922    -1.089573     1.382252
C      1.265750    -2.583079     2.951260
H      2.125410    -2.192617     3.507107
H      1.279110    -3.678689     3.007579
C     -0.071308    -2.023102     3.459509
H      0.068495    -1.018856     3.869802
H     -0.526015    -2.657238     4.228916
