32
Energy = -1142.573427127 Hartree (EUMP2 CORRECTED)
O      0.527172    -0.397537     0.837350
C      1.476399     0.267550    -0.024528
H      2.216552    -0.483416    -0.318263
H      1.973113     1.081463     0.519768
C     -0.750203     0.274752     0.695597
H     -1.493883    -0.486633     0.427266
H     -1.026776     0.749921     1.641858
C      0.635721     0.816656    -1.165353
H      0.352197     0.007536    -1.851814
H      1.104021     1.628721    -1.728114
C     -0.585613     1.325695    -0.400617
H     -1.470237     1.430343    -1.036008
O     -0.273013     2.571632     0.224605
P     -0.767625     3.993063    -0.535364
O     -1.526299     4.807063     0.488299
O     -1.279764     3.652020    -1.914269
O      0.734307     4.695078    -0.752379
C      1.353549     5.358202     0.353072
H      2.329136     4.885756     0.529982
H      0.731575     5.271144     1.253283
C      1.553634     6.827784     0.024981
H      1.975940     7.325230     0.909720
O      2.519968     7.023704    -1.026445
C      1.818085     6.931163    -2.287365
H      2.328334     7.620186    -2.970223
H      1.894113     5.908712    -2.670595
C      0.349817     7.308529    -2.014020
H     -0.315072     6.499888    -2.325626
H      0.062246     8.220881    -2.549950
C      0.284058     7.510907    -0.487533
H     -0.616979     7.072024    -0.047886
H      0.328216     8.577883    -0.237116
