32
Energy = -1142.573463532 Hartree (EUMP2 CORRECTED)
O      1.876440     0.218246    -0.082397
C      2.349359     1.533952     0.285184
H      3.434095     1.532325     0.139135
H      2.119221     1.733144     1.339772
C      0.519435     0.354532    -0.570009
H      0.481196    -0.091014    -1.572472
H     -0.169597    -0.172598     0.097519
C      1.586212     2.482287    -0.623021
H      1.998835     2.445584    -1.640560
H      1.538180     3.519926    -0.284983
C      0.197275     1.848158    -0.598183
H     -0.427031     2.125478    -1.455524
O     -0.477118     2.163823     0.627106
P     -1.371660     3.570857     0.647691
O     -0.681565     4.643373    -0.170349
O     -1.843341     3.781060     2.065825
O     -2.643718     2.950335    -0.270103
C     -3.564273     3.890217    -0.825672
H     -3.515157     3.818096    -1.920462
H     -3.309068     4.920126    -0.538197
C     -4.969413     3.554087    -0.357400
H     -5.671268     4.270124    -0.810407
O     -5.366324     2.251471    -0.853321
C     -5.198613     1.321986     0.232019
H     -5.804029     0.442267    -0.010128
H     -4.142597     1.042415     0.324934
C     -5.672833     2.097725     1.453808
H     -5.309820     1.672921     2.396200
H     -6.769854     2.114514     1.473895
C     -5.097422     3.495298     1.180449
H     -4.113715     3.604330     1.649124
H     -5.749048     4.292727     1.555768
