32
Energy = -1142.569893999 Hartree (EUMP2 CORRECTED)
O      1.968133     0.706679     1.069046
C      2.190933     1.788339     0.139728
H      3.214903     1.680354    -0.230756
H      2.079058     2.755352     0.646659
C      0.545078     0.438505     1.093122
H      0.414267    -0.640080     0.941158
H      0.122601     0.734005     2.058916
C      1.108751     1.610622    -0.912662
H      1.359245     0.773388    -1.578382
H      0.916739     2.512561    -1.500693
C     -0.092698     1.261055    -0.029217
H     -0.874064     0.708577    -0.561420
O     -0.633413     2.441077     0.557997
P     -1.731033     3.416378    -0.267607
O     -0.970161     4.565981    -0.896421
O     -2.936040     3.585997     0.619284
O     -2.168332     2.359712    -1.504743
C     -1.780269     2.617038    -2.854422
H     -1.313751     1.703990    -3.251637
H     -1.064083     3.448336    -2.889624
C     -2.997022     2.960263    -3.696306
H     -2.652144     3.210357    -4.709926
O     -3.883442     1.836421    -3.855789
C     -4.788341     1.831183    -2.726279
H     -5.736542     1.428298    -3.100048
H     -4.390995     1.172419    -1.947454
C     -4.887857     3.281888    -2.220830
H     -4.617832     3.342639    -1.163741
H     -5.900422     3.682236    -2.349756
C     -3.870475     4.056774    -3.081881
H     -3.282079     4.767762    -2.493059
H     -4.376640     4.602145    -3.887656
