32
Energy = -1142.571911660 Hartree (EUMP2 CORRECTED)
O      0.781611     0.164556     0.933434
C      1.707704     1.263590     0.771493
H      2.714691     0.847406     0.876045
H      1.536557     2.016588     1.551213
C     -0.389689     0.445050     0.130062
H     -0.523054    -0.390274    -0.570225
H     -1.269025     0.531894     0.776456
C      1.396111     1.835045    -0.600709
H      1.802672     1.183875    -1.386535
H      1.746710     2.860905    -0.743092
C     -0.132807     1.760539    -0.598874
H     -0.575548     1.788375    -1.602442
O     -0.695808     2.802484     0.204321
P     -0.707984     4.333262    -0.494940
O     -1.320610     4.223970    -1.872583
O      0.627295     5.021862    -0.268275
O     -1.791944     4.899596     0.633995
C     -1.754924     6.279636     0.999512
H     -2.728628     6.722387     0.753888
H     -0.960301     6.811785     0.459240
C     -1.504286     6.385962     2.495646
H     -1.507331     7.449064     2.777166
O     -2.585319     5.782770     3.242358
C     -2.182169     4.431026     3.539664
H     -2.809615     4.095113     4.371901
H     -2.336662     3.792358     2.664076
C     -0.700501     4.547987     3.883551
H     -0.164032     3.604998     3.732382
H     -0.586784     4.850575     4.931866
C     -0.213917     5.658290     2.934526
H      0.301831     5.250797     2.060357
H      0.471206     6.348948     3.439591
