32
Energy = -1142.573386674 Hartree (EUMP2 CORRECTED)
O      2.225919     0.763175    -0.205971
C      2.398927     2.178677    -0.404144
H      3.314541     2.308454    -0.989734
H      2.501494     2.691187     0.561993
C      0.810425     0.518845     0.006165
H      0.521335    -0.303405    -0.660028
H      0.625055     0.235831     1.045849
C      1.122557     2.608669    -1.109225
H      1.144188     2.272897    -2.154355
H      0.915327     3.681433    -1.068440
C      0.076038     1.826052    -0.317389
H     -0.847224     1.669379    -0.885968
O     -0.181556     2.551233     0.886405
P     -1.757453     2.535845     1.455244
O     -2.653724     3.266192     0.475313
O     -1.686481     2.832458     2.928638
O     -2.051517     0.883327     1.252049
C     -3.109673     0.434661     0.404786
H     -2.702375    -0.353182    -0.245060
H     -3.478524     1.268042    -0.207545
C     -4.251644    -0.147494     1.220308
H     -5.065852    -0.407729     0.528767
O     -3.885686    -1.381876     1.866242
C     -3.269517    -1.040831     3.130181
H     -3.504432    -1.864605     3.813535
H     -2.185066    -0.971134     2.997633
C     -3.858366     0.313320     3.564611
H     -3.065542     1.040281     3.757160
H     -4.471423     0.211244     4.467887
C     -4.713786     0.761146     2.362348
H     -4.577264     1.821649     2.127802
H     -5.778771     0.580581     2.551953
