32
Energy = -1142.569484970 Hartree (EUMP2 CORRECTED)
O      0.932932    -0.123732     0.305613
C      1.824738     1.009398     0.401893
H      2.840552     0.607258     0.467895
H      1.598074     1.589068     1.306571
C     -0.238973     0.297177    -0.433863
H     -0.369865    -0.400090    -1.271340
H     -1.119384     0.268626     0.215870
C      1.542653     1.825841    -0.846698
H      1.992188     1.340427    -1.723942
H      1.850770     2.873336    -0.802468
C      0.018672     1.725777    -0.913697
H     -0.387559     1.904554    -1.917832
O     -0.583240     2.611288     0.037091
P     -0.881004     4.164633    -0.521104
O     -2.167969     4.207206    -1.312464
O      0.405373     4.749192    -1.082760
O     -1.114020     4.742232     1.025970
C     -1.423479     6.133095     1.140686
H     -2.442580     6.229303     1.535894
H     -1.375707     6.640770     0.166183
C     -0.433816     6.780960     2.094142
H     -0.692605     7.844872     2.197931
O     -0.562032     6.217755     3.421006
C      0.466065     5.218548     3.550536
H      0.597162     5.040547     4.622914
H      0.155736     4.295838     3.047557
C      1.674851     5.845856     2.865798
H      2.420448     5.103604     2.559034
H      2.153275     6.559411     3.548196
C      1.035589     6.566921     1.667653
H      1.079249     5.952308     0.762725
H      1.527908     7.523001     1.455622
