32
Energy = -1142.571728711 Hartree (EUMP2 CORRECTED)
O      0.062956    -0.079707     1.482657
C      1.182510     0.579046     0.850435
H      2.057035    -0.059922     1.009428
H      1.353655     1.558812     1.315696
C     -1.135769     0.280494     0.752545
H     -1.621739    -0.650934     0.433806
H     -1.808254     0.847614     1.403959
C      0.765307     0.737379    -0.601313
H      0.833994    -0.227135    -1.122591
H      1.325014     1.498007    -1.150736
C     -0.703790     1.133148    -0.438553
H     -1.298378     0.951965    -1.340567
O     -0.837046     2.504347    -0.045210
P     -0.709380     3.674808    -1.246082
O     -1.257970     4.948376    -0.654290
O     -1.123835     3.057722    -2.560178
O      0.966336     3.817017    -1.342624
C      1.626094     4.772711    -0.509856
H      2.538247     4.303743    -0.119040
H      0.971944     5.043495     0.327084
C      2.024701     6.045152    -1.276357
H      1.926997     6.922773    -0.628681
O      3.432730     5.990028    -1.636808
C      3.488027     5.093682    -2.763720
H      4.407977     5.330628    -3.307449
H      3.540808     4.055411    -2.406953
C      2.194308     5.326700    -3.568197
H      1.680732     4.384063    -3.771047
H      2.399455     5.830384    -4.519688
C      1.345791     6.208632    -2.635630
H      0.291041     5.927675    -2.615417
H      1.421313     7.263518    -2.925843
