32
Energy = -1142.557823839 Hartree (EUMP2 CORRECTED)
O      1.187687     0.024446     0.445064
C      2.050251     1.138380     0.129966
H      3.036936     0.719519    -0.089229
H      2.118851     1.820262     0.988059
C     -0.172650     0.440465     0.176075
H     -0.643849    -0.356595    -0.412814
H     -0.714289     0.578341     1.117934
C      1.361762     1.812103    -1.043712
H      1.499271     1.210142    -1.952015
H      1.661309     2.845660    -1.235310
C     -0.097260     1.770182    -0.584701
H     -0.780887     1.826472    -1.435022
O     -0.317183     2.839684     0.338765
P     -1.246625     4.158524    -0.144507
O     -0.667156     4.654806    -1.451797
O     -1.468682     5.001123     1.080958
O     -2.744494     3.478309    -0.520096
C     -3.154391     2.149654    -0.743626
H     -2.646553     1.444632    -0.072937
H     -2.967665     1.851444    -1.791566
C     -4.648841     2.069956    -0.464586
H     -5.021728     1.102782    -0.830225
O     -4.933880     2.091572     0.941369
C     -4.966092     3.481197     1.354111
H     -5.673479     3.528796     2.188944
H     -3.972096     3.792824     1.686870
C     -5.412077     4.289608     0.120779
H     -4.693769     5.086996    -0.079246
H     -6.403642     4.734265     0.266141
C     -5.425092     3.263472    -1.030563
H     -4.961830     3.658638    -1.940156
H     -6.449488     2.949330    -1.263836
