32
Energy = -1142.558704719 Hartree (EUMP2 CORRECTED)
O      0.918554    -0.624447     0.250726
C     -0.020335    -0.710462    -0.848368
H     -0.242241    -1.772689    -0.992971
H      0.431541    -0.299192    -1.759224
C      0.669662     0.614619     0.956299
H      0.422397     0.366397     1.997570
H      1.568210     1.239741     0.928732
C     -1.207160     0.132458    -0.415914
H     -1.814038    -0.407779     0.323552
H     -1.834070     0.466096    -1.247285
C     -0.491066     1.308785     0.252273
H     -1.131796     1.878798     0.936369
O      0.069249     2.185268    -0.727178
P     -1.039340     3.198155    -1.522303
O     -1.982306     3.785704    -0.501926
O     -1.514200     2.460035    -2.757498
O      0.064937     4.365722    -1.977169
C      1.411901     3.979371    -2.223206
H      1.928251     3.723725    -1.289504
H      1.426264     3.098031    -2.882783
C      2.132771     5.130568    -2.905940
H      1.387278     5.729670    -3.441686
O      2.763484     6.028117    -1.948937
C      4.179037     5.986653    -2.148628
H      4.584648     6.946901    -1.814988
H      4.632492     5.182508    -1.545354
C      4.351470     5.703816    -3.635639
H      5.354467     5.346321    -3.896315
H      4.140986     6.611875    -4.212905
C      3.255719     4.658771    -3.843775
H      3.619134     3.670815    -3.529570
H      2.907660     4.571749    -4.877775
