32
Energy = -1142.554711611 Hartree (EUMP2 CORRECTED)
O      1.461572     0.292540     0.667628
C      0.609434    -0.076391    -0.443608
H      0.345889    -1.129391    -0.303294
H      1.152649     0.047242    -1.388321
C      1.236558     1.691508     0.957394
H      0.912894     1.771404     2.004110
H      2.168147     2.250792     0.816646
C     -0.562566     0.886772    -0.370985
H     -1.248771     0.596494     0.436236
H     -1.109816     0.989687    -1.312152
C      0.160557     2.184610    -0.004887
H     -0.498142     2.944497     0.433426
O      0.826759     2.728429    -1.147235
P     -0.169326     3.544605    -2.255040
O     -1.060410     4.452311    -1.427821
O     -0.726131     2.565595    -3.258630
O      1.023734     4.431730    -3.003950
C      2.337071     4.626920    -2.504439
H      2.494235     4.024213    -1.605240
H      3.030293     4.264535    -3.277101
C      2.656080     6.125296    -2.210969
H      3.448991     6.468714    -2.887069
O      1.563625     7.015234    -2.425199
C      0.764608     7.059976    -1.212343
H      0.597131     8.121945    -0.991296
H     -0.182443     6.543772    -1.386818
C      1.596558     6.358275    -0.127123
H      1.219956     5.340275     0.018569
H      1.557029     6.880570     0.835853
C      3.004193     6.332336    -0.737507
H      3.643806     5.541834    -0.327511
H      3.508396     7.298349    -0.604655
