32
Energy = -1142.567487523 Hartree (EUMP2 CORRECTED)
O      2.014835     0.407785    -0.716376
C      1.744671     1.408538    -1.724774
H      2.197459     1.050810    -2.655027
H      2.199026     2.365150    -1.436871
C      0.921789     0.426525     0.234148
H      0.496994    -0.585395     0.273127
H      1.297444     0.710645     1.222291
C      0.230869     1.523507    -1.757249
H     -0.205973     0.658777    -2.275421
H     -0.136336     2.449600    -2.205447
C     -0.095433     1.449446    -0.264936
H     -1.134238     1.164246    -0.066442
O      0.198606     2.686605     0.394154
P     -0.908311     3.936825     0.244063
O     -0.618882     4.926519     1.346914
O     -2.265045     3.331830    -0.035450
O     -0.309901     4.584750    -1.197307
C     -0.164523     6.002727    -1.289685
H     -0.280308     6.252668    -2.350018
H     -0.937830     6.521837    -0.711380
C      1.230829     6.444417    -0.849183
H      1.900952     5.575443    -0.930896
O      1.682909     7.475640    -1.781584
C      2.507419     8.427723    -1.083302
H      3.463946     8.518779    -1.613035
H      2.002878     9.403988    -1.106534
C      2.650467     7.906182     0.347645
H      2.766899     8.714536     1.078866
H      3.521555     7.244777     0.431771
C      1.362555     7.103251     0.514961
H      0.506329     7.770210     0.679823
H      1.366669     6.367300     1.321375
