32
Energy = -1142.571726399 Hartree (EUMP2 CORRECTED)
O      0.479470    -0.089935     0.650173
C      1.487459     0.729678     0.013488
H      2.246278     0.046694    -0.381018
H      1.941384     1.405747     0.748495
C     -0.787644     0.602024     0.544487
H     -1.495806    -0.073598     0.046092
H     -1.155405     0.849676     1.545780
C      0.727723     1.515437    -1.040849
H      0.485519     0.871962    -1.897598
H      1.239022     2.413759    -1.395371
C     -0.544590     1.871002    -0.271022
H     -1.380082     2.132979    -0.930310
O     -0.287160     2.928930     0.652827
P     -0.252379     4.516118     0.039459
O     -0.753252     4.484654    -1.383624
O      1.056982     5.112607     0.493439
O     -1.495635     5.139548     0.966117
C     -1.337503     5.103723     2.386369
H     -0.997073     6.086177     2.737495
H     -0.597875     4.347425     2.683134
C     -2.680093     4.762637     3.008278
H     -2.559789     4.717074     4.100025
O     -3.648656     5.810538     2.766967
C     -4.443183     5.394498     1.642480
H     -5.360633     5.991309     1.666918
H     -3.896746     5.575212     0.709951
C     -4.658053     3.904251     1.881862
H     -4.944824     3.363868     0.972650
H     -5.443750     3.763529     2.634295
C     -3.289573     3.466656     2.426757
H     -2.647538     3.094806     1.624350
H     -3.376165     2.686076     3.191145
