32
Energy = -1142.567849278 Hartree (EUMP2 CORRECTED)
O      0.913405    -0.132889     0.803666
C      1.627153     0.760219    -0.073446
H      2.511879     0.219052    -0.423493
H      1.941210     1.659283     0.474621
C     -0.473984     0.286775     0.809291
H     -1.081321    -0.614887     0.667484
H     -0.720496     0.756109     1.767765
C      0.616295     1.103614    -1.155144
H      0.493439     0.248434    -1.833262
H      0.842226     2.000362    -1.737654
C     -0.654673     1.301681    -0.324650
H     -1.568333     1.140721    -0.906297
O     -0.692908     2.605374     0.267894
P     -1.318537     3.866684    -0.668168
O     -1.663539     4.955822     0.314133
O     -2.233109     3.288595    -1.718987
O      0.077552     4.321830    -1.498804
C      1.179930     4.758510    -0.702599
H      1.746377     3.888696    -0.342640
H      0.811473     5.307950     0.171820
C      2.120804     5.646340    -1.543127
H      2.106867     6.676995    -1.173702
O      3.495422     5.213900    -1.400229
C      3.683259     4.117878    -2.321034
H      4.697143     4.219620    -2.722444
H      3.618345     3.164236    -1.779603
C      2.582866     4.240355    -3.395758
H      1.863725     3.420372    -3.316416
H      2.996452     4.235764    -4.410408
C      1.887883     5.563051    -3.046457
H      0.828277     5.565249    -3.308236
H      2.394509     6.410417    -3.524483
