32
Energy = -1142.567329731 Hartree (EUMP2 CORRECTED)
O      1.714676     0.409261     0.785076
C      1.833300     1.849884     0.738942
H      2.903671     2.077833     0.734387
H      1.361593     2.297769     1.622329
C      0.469921     0.049659     0.142122
H      0.700505    -0.691150    -0.634794
H     -0.218600    -0.382604     0.875699
C      1.091553     2.253202    -0.523585
H      1.691275     2.017633    -1.413433
H      0.792717     3.303773    -0.547159
C     -0.124651     1.328390    -0.450116
H     -0.596817     1.162227    -1.423509
O     -1.083632     1.813681     0.490174
P     -2.001519     3.185557     0.210097
O     -1.352409     4.377049     0.878399
O     -3.457606     2.830311     0.409951
O     -1.683661     3.284095    -1.447585
C     -2.303474     4.373012    -2.133611
H     -1.511560     5.020641    -2.532102
H     -2.930220     4.970179    -1.455820
C     -3.156951     3.849395    -3.274709
H     -3.581731     4.710786    -3.811874
O     -2.333128     3.152187    -4.244055
C     -2.547106     1.745659    -4.051463
H     -2.240888     1.247795    -4.977459
H     -1.936788     1.384720    -3.214540
C     -4.032145     1.636095    -3.734069
H     -4.297418     0.690787    -3.247244
H     -4.611599     1.727605    -4.661405
C     -4.241869     2.851232    -2.820747
H     -4.093961     2.589427    -1.767580
H     -5.244665     3.281221    -2.923197
