32
Energy = -1142.569170987 Hartree (EUMP2 CORRECTED)
O      1.611283    -0.059642    -0.673847
C      2.282258     1.180953    -0.356164
H      3.333909     1.049718    -0.629469
H      2.200459     1.390831     0.717574
C      0.231761     0.251162    -0.985876
H      0.014309    -0.168574    -1.976706
H     -0.428674    -0.199207    -0.237820
C      1.540045     2.230987    -1.164648
H      1.818124     2.164967    -2.225239
H      1.686670     3.255427    -0.812051
C      0.093700     1.772112    -0.969638
H     -0.585933     2.157049    -1.737705
O     -0.379058     2.137498     0.329749
P     -0.820370     3.739355     0.547255
O     -1.147526     4.353344    -0.800362
O      0.153671     4.380738     1.511743
O     -2.242767     3.396469     1.360803
C     -3.331599     4.312796     1.236325
H     -4.202653     3.749653     0.876249
H     -3.100351     5.100173     0.506043
C     -3.661984     4.921144     2.588916
H     -4.515499     5.603972     2.461424
O     -4.117775     3.894216     3.504297
C     -3.006403     3.579569     4.362465
H     -3.420219     3.077053     5.242849
H     -2.306486     2.916633     3.840244
C     -2.372641     4.934632     4.646242
H     -1.341809     4.856637     5.008678
H     -2.972180     5.471297     5.392476
C     -2.457506     5.607999     3.268731
H     -1.537687     5.418202     2.706862
H     -2.605111     6.691608     3.341440
