32
Energy = -1142.568808193 Hartree (EUMP2 CORRECTED)
O      1.574060     0.254729    -0.267244
C      1.741703     1.423970    -1.096444
H      2.536017     1.205262    -1.818772
H      2.038703     2.277446    -0.473854
C      0.156902     0.076819     0.006319
H     -0.186382    -0.827298    -0.518746
H     -0.004753    -0.042055     1.075599
C      0.375902     1.664612    -1.724897
H      0.211786     0.978754    -2.566712
H      0.217017     2.695884    -2.052807
C     -0.546845     1.304118    -0.564249
H     -1.569342     1.055705    -0.881886
O     -0.565500     2.445177     0.288331
P     -1.279798     2.443849     1.821574
O     -1.706924     1.023654     2.138669
O     -2.173260     3.649484     1.908314
O      0.075187     2.823626     2.723749
C      1.069338     1.821597     2.924201
H      1.652546     1.666172     2.007226
H      0.597194     0.870159     3.213397
C      1.979353     2.288040     4.044990
H      2.722218     1.502716     4.240827
O      2.739747     3.455169     3.656668
C      2.026667     4.599780     4.158230
H      2.735593     5.433967     4.165006
H      1.176644     4.827054     3.505694
C      1.563032     4.162179     5.543807
H      0.721597     4.756977     5.916073
H      2.394313     4.248950     6.254006
C      1.191123     2.687790     5.314324
H      0.118872     2.583217     5.127250
H      1.458869     2.056877     6.169277
