32
Energy = -1142.572824895 Hartree (EUMP2 CORRECTED)
O      1.547871     0.077258    -1.178609
C      2.186615     1.366945    -1.041105
H      3.081309     1.344155    -1.670988
H      2.471747     1.538358     0.004339
C      0.128485     0.262871    -0.961940
H     -0.395523    -0.154331    -1.831809
H     -0.180382    -0.264504    -0.053372
C      1.125164     2.362212    -1.476850
H      1.015381     2.350235    -2.569743
H      1.303918     3.386642    -1.139404
C     -0.117028     1.763677    -0.813882
H     -1.051474     2.100659    -1.275861
O     -0.128291     2.053934     0.586023
P     -0.603809     3.605057     1.042760
O     -1.422515     4.193614    -0.091942
O      0.580427     4.299478     1.666259
O     -1.621410     3.180833     2.294061
C     -3.037849     3.251139     2.122651
H     -3.462447     2.300717     2.472436
H     -3.287817     3.403792     1.064764
C     -3.619629     4.387791     2.947138
H     -4.696332     4.447380     2.732092
O     -3.522337     4.139847     4.362618
C     -2.223267     4.608150     4.795894
H     -2.355443     4.956024     5.826705
H     -1.513009     3.775623     4.776071
C     -1.796165     5.717896     3.817447
H     -0.826637     5.484547     3.370778
H     -1.727429     6.690252     4.319589
C     -2.902466     5.724325     2.743228
H     -2.502834     5.824195     1.729164
H     -3.614336     6.538927     2.923969
