32
Energy = -1142.564749078 Hartree (EUMP2 CORRECTED)
O      1.857140    -0.218439     0.385224
C      2.465838     1.009320    -0.048892
H      3.495909     0.772523    -0.333123
H      2.452999     1.747576     0.764320
C      0.422578    -0.017682     0.308227
H     -0.001539    -0.913984    -0.159275
H      0.004627     0.093869     1.309723
C      1.569858     1.446997    -1.197559
H      1.724469     0.782764    -2.058530
H      1.691346     2.489597    -1.505979
C      0.188412     1.225274    -0.579596
H     -0.587732     1.020940    -1.329306
O     -0.179667     2.437320     0.083205
P     -0.719066     2.510343     1.677381
O      0.502622     2.507836     2.576226
O     -1.889113     1.578502     1.871858
O     -1.325393     4.053189     1.570773
C     -0.404170     5.142745     1.474432
H     -0.557063     5.632525     0.504017
H      0.631289     4.783619     1.545569
C     -0.666955     6.129729     2.599175
H      0.050989     6.957523     2.508708
O     -1.973399     6.735711     2.470408
C     -2.872752     5.956752     3.282815
H     -3.749340     6.586146     3.468825
H     -3.166177     5.047073     2.748945
C     -2.063040     5.631406     4.535153
H     -2.425116     4.730435     5.041812
H     -2.117122     6.471501     5.238166
C     -0.631747     5.462640     3.991726
H     -0.350778     4.409848     3.897262
H      0.104026     5.951379     4.640350
