32
Energy = -1142.557906063 Hartree (EUMP2 CORRECTED)
O      2.312925     1.301202     0.261676
C      1.761201     0.704993    -0.938833
H      2.188758    -0.299391    -1.028951
H      2.060715     1.304148    -1.808176
C      1.265892     2.044128     0.928559
H      1.020209     1.535717     1.872459
H      1.623711     3.055944     1.137617
C      0.252118     0.730796    -0.755119
H     -0.074698    -0.103005    -0.118343
H     -0.322549     0.737104    -1.684920
C      0.074302     2.056496    -0.016072
H     -0.881312     2.139548     0.518490
O      0.245526     3.152349    -0.916627
P     -1.182330     3.677890    -1.687262
O     -1.993650     4.483290    -0.702858
O     -1.738414     2.484269    -2.436592
O     -0.441574     4.736700    -2.732037
C      0.881877     4.517033    -3.205654
H      1.208194     3.485170    -3.035723
H      0.834151     4.686657    -4.290069
C      1.902221     5.516117    -2.594923
H      2.512933     5.897292    -3.425625
O      1.291888     6.672923    -2.019170
C      1.180089     6.404874    -0.608609
H      0.995592     7.368043    -0.122840
H      0.340421     5.729104    -0.416404
C      2.527666     5.775166    -0.262399
H      2.499762     5.192258     0.664640
H      3.283081     6.562971    -0.152906
C      2.815523     4.904342    -1.502016
H      2.546266     3.863794    -1.306711
H      3.870887     4.942800    -1.794744
