32
Energy = -1142.574007479 Hartree (EUMP2 CORRECTED)
O      1.669142     0.110276     1.159053
C      2.283880     1.326694     0.700633
H      3.355968     1.126702     0.604687
H      2.122134     2.136272     1.425557
C      0.279694     0.130518     0.731034
H      0.074394    -0.831194     0.247055
H     -0.380256     0.255365     1.593102
C      1.570584     1.627764    -0.608335
H      1.920898     0.940796    -1.389770
H      1.671222     2.661071    -0.953145
C      0.124455     1.313751    -0.231988
H     -0.509408     1.064463    -1.089291
O     -0.386127     2.463430     0.451589
P     -2.063335     2.624045     0.495156
O     -2.359250     3.521224     1.672938
O     -2.688525     1.275889     0.236416
O     -2.286210     3.510799    -0.912204
C     -1.799694     4.854673    -0.935528
H     -1.007119     4.920765    -1.693127
H     -1.393322     5.140422     0.044033
C     -2.934055     5.796504    -1.301467
H     -2.538990     6.822243    -1.334438
O     -3.421457     5.525088    -2.636814
C     -4.575536     4.676030    -2.492340
H     -5.135993     4.746729    -3.430368
H     -4.258865     3.642439    -2.315761
C     -5.305938     5.248145    -1.282246
H     -5.979107     4.521435    -0.814412
H     -5.894086     6.122267    -1.587763
C     -4.148447     5.659951    -0.356577
H     -3.945047     4.900526     0.403767
H     -4.355224     6.604817     0.158577
