32
Energy = -1142.572601291 Hartree (EUMP2 CORRECTED)
O      2.025257     0.821450     0.817628
C      2.336194     1.980723     0.015368
H      3.379484     1.877633    -0.299325
H      2.218379     2.895051     0.611795
C      0.602773     0.563978     0.694311
H      0.483219    -0.482566     0.387335
H      0.108142     0.728667     1.656435
C      1.320687     1.940723    -1.115188
H      1.595826     1.164784    -1.842011
H      1.166519     2.891823    -1.631475
C      0.061565     1.537116    -0.352794
H     -0.705548     1.085085    -0.987836
O     -0.456148     2.690455     0.323883
P     -1.937149     3.252590    -0.190502
O     -1.938301     3.422405    -1.695656
O     -2.368236     4.332274     0.771741
O     -2.765394     1.821215     0.158864
C     -4.087129     1.693212    -0.364735
H     -4.102735     0.849305    -1.067569
H     -4.393009     2.598099    -0.909009
C     -5.052785     1.424231     0.776103
H     -6.063628     1.299989     0.359906
O     -4.735724     0.162605     1.415421
C     -4.011728     0.472793     2.619069
H     -4.077526    -0.410304     3.263169
H     -2.964019     0.690234     2.379880
C     -4.719064     1.706258     3.164717
H     -4.107542     2.266945     3.880292
H     -5.651734     1.405177     3.658234
C     -4.997964     2.501759     1.880828
H     -4.187003     3.210161     1.681180
H     -5.938389     3.061971     1.936389
