32
Energy = -1142.553296559 Hartree (EUMP2 CORRECTED)
O      1.590654     0.268355     0.886870
C      1.925539     1.232998    -0.133553
H      2.878023     0.915285    -0.568053
H      2.027063     2.234715     0.302000
C      0.153777     0.285559     1.040572
H     -0.193816    -0.754304     0.991135
H     -0.119475     0.726236     2.005021
C      0.745191     1.187467    -1.089739
H      0.779420     0.266827    -1.689392
H      0.683724     2.060632    -1.745926
C     -0.421725     1.141677    -0.095540
H     -1.334505     0.689338    -0.498986
O     -0.673278     2.425441     0.446040
P     -1.243325     3.828853    -0.307599
O     -0.109722     4.819461    -0.337854
O     -2.606910     4.091906     0.287582
O     -1.480188     3.417534    -1.930221
C     -2.109465     2.236648    -2.406525
H     -2.784506     1.803919    -1.655691
H     -1.346750     1.496138    -2.690773
C     -2.939486     2.582792    -3.639393
H     -3.142890     1.657780    -4.196578
O     -4.225636     3.119108    -3.301689
C     -4.020346     4.522126    -3.000534
H     -4.969842     5.019202    -3.224315
H     -3.781409     4.635140    -1.938600
C     -2.855337     4.982017    -3.900187
H     -2.093710     5.489766    -3.304477
H     -3.199765     5.662339    -4.687939
C     -2.295471     3.674898    -4.500812
H     -1.202203     3.640579    -4.464932
H     -2.621220     3.549648    -5.540310
