32
Energy = -1142.572985043 Hartree (EUMP2 CORRECTED)
O     -0.026069    -0.558966     0.116681
C      1.223540     0.134944    -0.103425
H      1.988658    -0.633024    -0.254363
H      1.475747     0.740258     0.776634
C     -1.095944     0.290692    -0.363623
H     -1.675182    -0.286918    -1.096042
H     -1.739435     0.584121     0.471781
C      0.962078     1.019906    -1.309361
H      0.954422     0.417245    -2.228059
H      1.649020     1.860286    -1.430393
C     -0.446618     1.521424    -0.995699
H     -0.983212     1.872919    -1.884459
O     -0.400531     2.538702     0.007724
P     -0.162394     4.126727    -0.496991
O     -1.425031     4.917194    -0.234729
O      0.540715     4.092703    -1.836192
O      0.981049     4.541442     0.645679
C      0.628061     5.377549     1.750119
H      0.999528     4.893771     2.662983
H     -0.461895     5.491733     1.805483
C      1.275459     6.745188     1.611547
H      0.927578     7.373220     2.444245
O      2.709115     6.686398     1.746009
C      3.256124     6.396622     0.438785
H      4.228133     6.901359     0.398070
H      3.398457     5.315952     0.337189
C      2.244250     6.917774    -0.598627
H      1.941885     6.117067    -1.277751
H      2.664738     7.739643    -1.190296
C      1.046296     7.396936     0.245897
H      0.084048     7.107693    -0.188109
H      1.067441     8.487000     0.365223
