32
Energy = -1142.568698150 Hartree (EUMP2 CORRECTED)
O      1.299534     0.542794     1.084177
C      2.016630     1.722210     0.661219
H      3.083102     1.482730     0.721039
H      1.791203     2.559167     1.334583
C      0.008204     0.553041     0.426328
H     -0.110441    -0.414975    -0.076606
H     -0.786287     0.687887     1.167087
C      1.501933     1.998685    -0.740215
H      1.936117     1.278336    -1.447251
H      1.659562     3.012188    -1.115113
C      0.009663     1.720823    -0.563589
H     -0.488459     1.461805    -1.506332
O     -0.651630     2.819886     0.070319
P     -1.246163     4.020154    -0.962755
O     -2.709030     3.759632    -1.212760
O     -0.237671     4.225232    -2.080213
O     -1.060633     5.251929     0.151532
C     -0.486526     6.489377    -0.264086
H     -1.272088     7.256841    -0.280706
H     -0.046753     6.390208    -1.265442
C      0.588676     6.889812     0.730333
H      1.039593     7.836712     0.399653
O      0.014944     7.163967     2.031414
C      0.229181     5.992558     2.838258
H      0.114218     6.302250     3.881897
H     -0.509121     5.222126     2.586449
C      1.637987     5.550368     2.463420
H      1.847172     4.510445     2.737210
H      2.370502     6.198297     2.960798
C      1.639910     5.779015     0.945200
H      1.322065     4.873858     0.422044
H      2.623848     6.073943     0.563579
