32
Energy = -1142.574340590 Hartree (EUMP2 CORRECTED)
O      0.744817    -0.401618    -0.610454
C      1.619303     0.605178    -1.172382
H      2.287508     0.090221    -1.869694
H      2.207027     1.079043    -0.376738
C     -0.519083     0.229146    -0.306469
H     -1.305659    -0.318949    -0.842918
H     -0.705536     0.182993     0.771706
C      0.683695     1.610717    -1.817258
H      0.276301     1.203292    -2.752939
H      1.140357     2.587650    -1.992563
C     -0.427695     1.684165    -0.765998
H     -1.378646     2.064898    -1.163768
O     -0.039710     2.453459     0.376090
P      0.144336     4.121919     0.174032
O     -1.228871     4.694029    -0.122144
O      1.360067     4.426767    -0.667345
O      0.572482     4.425415     1.747362
C     -0.450095     4.388316     2.749024
H     -0.160872     3.639580     3.497701
H     -1.415313     4.111306     2.305594
C     -0.577205     5.750321     3.409464
H     -1.411924     5.709562     4.123653
O      0.584657     6.086631     4.192492
C      1.544507     6.702643     3.303195
H      2.089201     7.437620     3.906652
H      2.238678     5.940875     2.934571
C      0.745171     7.327002     2.143656
H      1.094955     6.935035     1.185937
H      0.843870     8.418864     2.128448
C     -0.712081     6.899596     2.408131
H     -1.225020     6.584059     1.494135
H     -1.274572     7.715775     2.877617
