32
Energy = -1142.571241383 Hartree (EUMP2 CORRECTED)
O      1.019007    -0.096382     0.849108
C      1.576640     1.226400     0.998713
H      2.630218     1.097707     1.265287
H      1.056164     1.768579     1.799437
C     -0.100358     0.003855    -0.064592
H      0.037233    -0.765766    -0.834065
H     -1.039435    -0.168809     0.470844
C      1.335334     1.891390    -0.345637
H      2.037728     1.493119    -1.090979
H      1.387267     2.982084    -0.338265
C     -0.086245     1.419868    -0.651308
H     -0.335933     1.420234    -1.719370
O     -1.031873     2.207725     0.078277
P     -1.812403     3.448243    -0.722206
O     -2.313957     4.426588     0.306889
O     -2.685710     2.863597    -1.816816
O     -0.437367     4.067335    -1.491195
C     -0.560708     5.373573    -2.055174
H      0.115774     6.049883    -1.516076
H     -1.584984     5.759432    -1.952578
C     -0.178013     5.328716    -3.523566
H     -0.252935     6.345846    -3.936331
O      1.214558     4.949284    -3.671192
C      1.237715     3.569607    -4.069828
H      2.217544     3.386495    -4.523303
H      1.105155     2.925080    -3.192472
C      0.062416     3.442996    -5.029935
H     -0.262559     2.406388    -5.174999
H      0.340365     3.862560    -6.005055
C     -1.000505     4.303499    -4.332437
H     -1.614483     3.697053    -3.657234
H     -1.666323     4.801811    -5.046265
