32
Energy = -1142.575951824 Hartree (EUMP2 CORRECTED)
O      1.096013    -0.037548     0.709282
C      1.817167     1.009072     0.025292
H      2.755053     0.570213    -0.328814
H      2.036733     1.831659     0.719655
C     -0.316759     0.271536     0.615851
H     -0.820685    -0.624890     0.233432
H     -0.709384     0.525728     1.605924
C      0.872637     1.465839    -1.072940
H      0.851582     0.718486    -1.878347
H      1.102272     2.449094    -1.490630
C     -0.465359     1.466217    -0.329076
H     -1.332875     1.379310    -0.992628
O     -0.602447     2.642196     0.479562
P     -1.335192     3.985486    -0.225955
O     -1.545164     4.973705     0.892328
O     -2.379459     3.510834    -1.206256
O     -0.056027     4.525220    -1.181941
C      1.017400     5.185746    -0.518223
H      1.582088     4.468450     0.096022
H      0.637671     5.981006     0.138900
C      1.913825     5.764526    -1.595280
H      2.798204     6.212380    -1.119732
O      2.417058     4.725115    -2.466709
C      1.630775     4.765341    -3.670455
H      2.212171     4.254768    -4.444815
H      0.675739     4.250817    -3.510169
C      1.421285     6.254541    -3.920134
H      0.588662     6.460127    -4.602228
H      2.335855     6.689102    -4.341888
C      1.170106     6.773997    -2.497253
H      0.100857     6.747077    -2.265965
H      1.534088     7.796561    -2.349310
