32
Energy = -1142.554287847 Hartree (EUMP2 CORRECTED)
O      1.315478    -0.331565     0.131391
C      0.425314    -0.426350    -1.007033
H      0.181823    -1.486387    -1.130483
H      0.929600    -0.054846    -1.907338
C      1.074374     0.937505     0.782708
H      0.781609     0.733299     1.821711
H      1.990778     1.537278     0.768633
C     -0.756440     0.459399    -0.653120
H     -1.408967    -0.042940     0.074047
H     -1.338060     0.785332    -1.519831
C     -0.039109     1.637284     0.010517
H     -0.692249     2.244892     0.648894
O      0.581636     2.469752    -0.971297
P     -0.465787     3.506719    -1.817102
O     -1.356466     4.173454    -0.791048
O     -1.011719     2.778052    -3.022768
O      0.701019     4.590952    -2.318675
C      2.066490     4.443322    -1.991072
H      2.177041     4.252425    -0.915879
H      2.522783     3.589447    -2.516012
C      2.823219     5.720227    -2.379613
H      3.079796     5.716018    -3.443398
O      2.059653     6.912898    -2.170811
C      1.985702     7.065662    -0.746740
H      1.778040     8.121658    -0.552822
H      1.157730     6.459764    -0.358198
C      3.358095     6.593847    -0.210137
H      3.236799     5.890695     0.620276
H      3.961121     7.432642     0.153428
C      4.016470     5.922135    -1.437071
H      4.527756     4.984163    -1.187777
H      4.744493     6.593798    -1.904870
