32
Energy = -1142.567699941 Hartree (EUMP2 CORRECTED)
O      1.923909     0.887076    -0.078957
C      2.095016     2.316808     0.008809
H      3.118274     2.549515    -0.307173
H      1.949477     2.638348     1.048037
C      0.592296     0.609767    -0.590116
H      0.686972     0.233785    -1.620387
H      0.118090    -0.135625     0.044646
C      1.016744     2.904552    -0.892167
H      1.320136     2.846477    -1.945805
H      0.745994     3.934407    -0.642720
C     -0.140729     1.946725    -0.621668
H     -0.908002     1.949512    -1.409308
O     -0.727697     2.394915     0.600950
P     -1.904493     1.571029     1.454588
O     -3.049890     1.224435     0.527032
O     -2.073699     2.310622     2.759666
O     -1.038021     0.156429     1.746970
C     -1.641239    -0.778849     2.643012
H     -1.920285    -1.675779     2.074664
H     -2.544157    -0.360251     3.110103
C     -0.637421    -1.138838     3.723595
H     -1.096410    -1.879287     4.396093
O      0.515091    -1.794901     3.143513
C      1.575091    -0.819769     3.074661
H      2.512163    -1.381994     3.004430
H      1.457613    -0.188612     2.187877
C      1.419041    -0.020528     4.362165
H      1.914568     0.956039     4.317940
H      1.839966    -0.588032     5.202063
C     -0.107313     0.096054     4.483063
H     -0.478289     1.011060     4.010430
H     -0.443075     0.095212     5.526485
