32
Energy = -1142.574317060 Hartree (EUMP2 CORRECTED)
O      1.286280    -0.036044    -1.087904
C      1.884390     1.246347    -1.385070
H      2.577570     1.085674    -2.216595
H      2.432142     1.619351    -0.510797
C     -0.032677     0.207226    -0.542906
H     -0.750387    -0.363996    -1.146358
H     -0.071325    -0.129800     0.498324
C      0.704869     2.148938    -1.703504
H      0.307549     1.921621    -2.702004
H      0.924551     3.217641    -1.632645
C     -0.288490     1.710974    -0.625577
H     -1.324941     1.966224    -0.872061
O      0.067404     2.271965     0.640102
P     -0.350320     3.886147     0.916631
O     -1.490124     4.214345    -0.032307
O      0.898619     4.714991     1.047324
O     -0.955932     3.700454     2.456627
C     -2.242501     3.099100     2.612936
H     -2.128092     2.209895     3.247075
H     -2.656257     2.805222     1.638838
C     -3.194315     4.079999     3.276876
H     -4.190490     3.617155     3.322230
O     -2.831089     4.348878     4.644605
C     -1.863598     5.424180     4.634282
H     -2.033411     5.993624     5.555101
H     -0.853392     5.003225     4.641523
C     -2.112020     6.238422     3.350414
H     -1.200700     6.289798     2.750462
H     -2.435964     7.260822     3.578264
C     -3.211116     5.455135     2.605870
H     -3.015990     5.385133     1.531191
H     -4.192381     5.917462     2.768493
