32
Energy = -1142.567067710 Hartree (EUMP2 CORRECTED)
O      0.766568    -0.536431    -0.071746
C     -0.005576    -0.167988    -1.237866
H     -0.310846    -1.100602    -1.723023
H      0.612488     0.421606    -1.926700
C      0.570988     0.486360     0.934277
H      0.181715    -0.003111     1.837033
H      1.526184     0.972349     1.157867
C     -1.149998     0.670679    -0.696590
H     -1.902458     0.027606    -0.219995
H     -1.621520     1.310671    -1.447275
C     -0.419687     1.497935     0.364812
H     -1.088072     1.917971     1.126956
O      0.343945     2.547339    -0.233370
P     -0.537973     3.886632    -0.779738
O     -1.467845     4.329342     0.320344
O     -0.997122     3.591352    -2.196746
O      0.751916     4.931155    -0.842750
C      1.666561     4.757779    -1.931956
H      2.590025     5.259658    -1.625159
H      1.876075     3.691388    -2.082538
C      1.176036     5.406399    -3.225898
H      0.257352     5.971540    -3.009402
O      2.204900     6.320536    -3.694001
C      1.847122     6.665109    -5.038650
H      1.256196     7.593381    -5.034345
H      2.779964     6.849856    -5.581440
C      1.023627     5.481411    -5.602717
H      1.482382     5.047998    -6.498305
H      0.014393     5.809746    -5.874917
C      0.971627     4.495691    -4.427677
H      1.810131     3.788827    -4.476379
H      0.039774     3.933225    -4.339967
