32
Energy = -1142.563054780 Hartree (EUMP2 CORRECTED)
O      1.947991    -0.327510    -0.119757
C      2.364825     0.902887    -0.738029
H      3.217965     0.659802    -1.379568
H      2.649479     1.629485     0.031937
C      0.611060    -0.098246     0.375492
H      0.064273    -1.037483     0.236646
H      0.643552     0.158836     1.436167
C      1.115969     1.345946    -1.487986
H      1.096032     2.403371    -1.769127
H      0.993535     0.728219    -2.387786
C     -0.000261     1.045408    -0.474127
H     -0.913746     0.703772    -0.976004
O     -0.386808     2.241188     0.207414
P      0.055546     2.701720     1.766290
O      1.506254     2.302872     1.979764
O     -1.045377     2.375936     2.738020
O     -0.001270     4.340771     1.478750
C      0.967246     4.901767     0.593879
H      0.445793     5.273621    -0.298080
H      1.708506     4.147306     0.296386
C      1.685286     6.045178     1.290305
H      2.426430     6.464833     0.594853
O      0.777076     7.129668     1.588480
C      0.332498     6.935750     2.944909
H     -0.061394     7.899064     3.285233
H     -0.452553     6.172995     2.975183
C      1.584889     6.476974     3.686094
H      1.349581     5.915508     4.596667
H      2.189982     7.349386     3.961422
C      2.310021     5.615496     2.636184
H      2.145232     4.546770     2.801086
H      3.390935     5.796190     2.642932
