32
Energy = -1142.556279133 Hartree (EUMP2 CORRECTED)
O      1.889726     0.645222     0.601690
C      1.790812     1.618997    -0.464855
H      2.654531     1.460589    -1.117965
H      1.803602     2.638333    -0.063029
C      0.549938     0.335984     1.041398
H      0.419687    -0.753243     0.977245
H      0.407670     0.666896     2.075474
C      0.449174     1.330254    -1.116939
H      0.506371     0.413499    -1.721185
H      0.085612     2.160065    -1.728611
C     -0.421755     1.077779     0.118172
H     -1.305794     0.464339    -0.086193
O     -0.795435     2.278206     0.788782
P     -1.373601     3.696533     0.074229
O     -0.199530     4.479231    -0.461665
O     -2.396342     4.235478     1.042174
O     -2.185584     3.181052    -1.315903
C     -2.852311     1.942913    -1.501093
H     -3.137623     1.484006    -0.545002
H     -2.200646     1.252830    -2.061022
C     -4.124520     2.180699    -2.307551
H     -4.464909     1.218688    -2.715649
O     -5.204552     2.659472    -1.495600
C     -5.012092     4.089273    -1.345281
H     -6.011500     4.511627    -1.197711
H     -4.389686     4.285429    -0.466897
C     -4.328556     4.564235    -2.643235
H     -3.434303     5.145276    -2.408044
H     -5.000750     5.181987    -3.250359
C     -3.953710     3.261484    -3.380787
H     -2.934419     3.291712    -3.778335
H     -4.649835     3.062734    -4.204342
