32
Energy = -1142.564506560 Hartree (EUMP2 CORRECTED)
O      1.142862    -0.180367     1.162355
C      0.077839     0.720965     1.531363
H      0.453330     1.490661     2.218029
H     -0.686759     0.118834     2.032530
C      1.804109     0.368672    -0.006892
H      2.826133     0.665597     0.248697
H      1.818825    -0.417420    -0.772604
C     -0.360430     1.344065     0.215698
H     -0.911994     2.282836     0.321446
H     -0.951810     0.622431    -0.364369
C      0.995243     1.590204    -0.450296
H      0.920689     1.668415    -1.537461
O      1.576806     2.759018     0.117340
P      1.861186     4.195764    -0.722645
O      3.356598     4.382195    -0.832179
O      0.901598     5.227963    -0.190383
O      1.278403     3.759382    -2.245926
C      2.209377     3.239518    -3.191998
H      2.719687     2.347207    -2.803058
H      2.979273     3.988094    -3.426368
C      1.416761     2.872842    -4.431305
H      2.104358     2.485378    -5.196284
O      0.501447     1.786758    -4.135215
C     -0.808087     2.360776    -3.983614
H     -1.528155     1.548295    -4.123924
H     -0.914935     2.792963    -2.980897
C     -0.859466     3.440944    -5.056292
H     -1.647816     4.181325    -4.880480
H     -1.024343     2.977952    -6.036847
C      0.551168     4.038120    -4.958654
H      0.566753     4.857796    -4.234453
H      0.917968     4.411967    -5.921015
