32
Energy = -1142.560710272 Hartree (EUMP2 CORRECTED)
O     -0.807052    -0.574337    -1.114747
C     -0.056309    -0.234073    -2.311303
H     -0.776383    -0.047923    -3.120961
H      0.558788    -1.098164    -2.586181
C     -0.622199     0.485807    -0.154975
H     -1.572610     0.640111     0.364899
H      0.157962     0.225624     0.573849
C      0.763648     1.005720    -1.973910
H      0.990278     1.624267    -2.846896
H      1.711490     0.757709    -1.492590
C     -0.159012     1.693004    -0.965277
H     -1.018433     2.124971    -1.502975
O      0.332337     2.700403    -0.101275
P      1.868541     3.394665    -0.035886
O      1.647296     4.889728    -0.076326
O      2.840390     2.651726    -0.915814
O      2.239972     2.963454     1.535988
C      1.505932     3.577794     2.597247
H      0.925801     2.799105     3.110100
H      0.823991     4.344885     2.206484
C      2.476452     4.221921     3.572207
H      1.899323     4.676485     4.390409
O      3.320426     3.227433     4.198733
C      4.550294     3.196210     3.450500
H      5.297534     2.722686     4.095849
H      4.415349     2.612218     2.533823
C      4.832047     4.662466     3.139609
H      5.497468     4.789202     2.278645
H      5.295054     5.140523     4.011638
C      3.424651     5.229207     2.884564
H      3.196081     5.286305     1.816477
H      3.307673     6.233019     3.308436
