32
Energy = -1142.564094266 Hartree (EUMP2 CORRECTED)
O      0.901613     0.132253     1.417054
C      2.059114     0.888950     1.032330
H      2.936433     0.280544     1.273979
H      2.103228     1.837493     1.585590
C     -0.218441     0.621925     0.628941
H     -0.742286    -0.255168     0.233368
H     -0.900406     1.206953     1.249779
C      1.851910     1.145224    -0.453182
H      2.033358     0.221315    -1.017737
H      2.469992     1.952259    -0.857947
C      0.368322     1.506950    -0.482110
H     -0.118045     1.304382    -1.442583
O      0.265435     2.895569    -0.135103
P     -1.152280     3.679444    -0.613828
O     -1.089351     5.054646    -0.001470
O     -2.294648     2.704420    -0.451676
O     -0.886429     3.869031    -2.268142
C      0.244312     3.461831    -3.015875
H     -0.072709     2.729959    -3.772890
H      1.016745     3.013433    -2.378414
C      0.850641     4.679326    -3.698097
H      1.728424     4.359119    -4.279829
O     -0.071357     5.245417    -4.656374
C     -0.698780     6.374168    -4.017033
H     -1.115952     6.995178    -4.816312
H     -1.493772     6.030137    -3.346276
C      0.434381     7.027168    -3.236634
H      0.075471     7.684278    -2.437507
H      1.065995     7.608328    -3.920319
C      1.183862     5.802987    -2.691089
H      0.800123     5.549429    -1.698172
H      2.264588     5.971004    -2.619291
