32
Energy = -1142.569502001 Hartree (EUMP2 CORRECTED)
O     -0.739403    -0.658967     0.558022
C     -0.134559    -0.767259    -0.759421
H     -0.899740    -1.160701    -1.441283
H      0.687433    -1.490897    -0.706156
C     -0.701456     0.724483     0.949126
H     -1.590763     0.922901     1.554903
H      0.199354     0.944828     1.539869
C      0.320887     0.633555    -1.154878
H      0.273733     0.826330    -2.227705
H      1.344717     0.838214    -0.821412
C     -0.635489     1.521496    -0.349157
H     -1.619992     1.564196    -0.838025
O     -0.205067     2.840732    -0.038899
P      0.677650     3.756854    -1.144948
O      0.476887     5.190396    -0.715620
O      0.470168     3.223891    -2.539272
O      2.229527     3.295669    -0.698141
C      2.689446     3.678185     0.599538
H      2.840631     2.767196     1.195066
H      1.955427     4.323384     1.100710
C      4.005145     4.424466     0.463791
H      4.365084     4.686334     1.469365
O      5.025599     3.569724    -0.104847
C      5.080301     3.866655    -1.512533
H      6.046374     3.498633    -1.873428
H      4.261446     3.358537    -2.033587
C      4.923531     5.381753    -1.576033
H      4.583777     5.730686    -2.557407
H      5.884365     5.859959    -1.348889
C      3.896228     5.654138    -0.464828
H      2.879755     5.730788    -0.861751
H      4.116245     6.580254     0.078167
