32
Energy = -1142.564848447 Hartree (EUMP2 CORRECTED)
O      1.873979    -0.145553     0.479046
C      2.467117     1.096015     0.058702
H      3.505451     0.879050    -0.211346
H      2.432775     1.830681     0.874496
C      0.436826    -0.013448     0.307610
H      0.097783    -0.891673    -0.256182
H     -0.063746     0.010262     1.276104
C      1.584902     1.532124    -1.100753
H      1.765987     0.885961    -1.970526
H      1.692592     2.582281    -1.387501
C      0.199563     1.269624    -0.509875
H     -0.569093     1.101693    -1.276759
O     -0.174883     2.442694     0.213742
P     -0.725578     2.517848     1.801750
O      0.459855     2.867203     2.678030
O     -1.669289     1.374417     2.088303
O     -1.679955     3.865178     1.597015
C     -1.062524     5.155145     1.582295
H     -1.318133     5.641976     0.631773
H      0.027978     5.062501     1.668874
C     -1.584443     5.989944     2.739347
H     -1.048932     6.950099     2.741741
O     -2.977414     6.325177     2.584187
C     -3.751540     5.234562     3.135177
H     -4.658086     5.686912     3.553332
H     -4.021713     4.540243     2.333366
C     -2.865914     4.541533     4.187968
H     -2.754335     3.480759     3.952415
H     -3.291905     4.631337     5.194305
C     -1.510361     5.268440     4.086779
H     -0.663113     4.576894     4.130605
H     -1.411581     6.014519     4.884698
