32
Energy = -1142.571629931 Hartree (EUMP2 CORRECTED)
O      1.447541     0.722509    -1.503436
C      1.413691     2.142957    -1.709441
H      1.960167     2.346215    -2.635617
H      1.896173     2.666645    -0.871945
C      0.351352     0.403680    -0.602147
H     -0.139199    -0.492723    -0.995048
H      0.745214     0.204425     0.393671
C     -0.072552     2.460389    -1.759040
H     -0.492460     2.106254    -2.709248
H     -0.320746     3.515906    -1.614220
C     -0.595025     1.618588    -0.597244
H     -1.637243     1.302335    -0.721348
O     -0.503128     2.441309     0.572177
P     -0.827467     1.771465     2.069414
O     -1.682755     0.534272     1.873542
O     -1.176976     2.921460     2.977140
O      0.731148     1.259087     2.463567
C      0.930960    -0.042146     3.020900
H      1.733103    -0.530191     2.449437
H      0.011878    -0.636583     2.930499
C      1.360847     0.041824     4.475908
H      1.421801    -0.983084     4.869371
O      2.686793     0.586640     4.619940
C      2.555698     2.026729     4.657195
H      3.380351     2.389697     5.280937
H      2.657939     2.426032     3.642910
C      1.160978     2.331958     5.231768
H      0.587988     2.976065     4.560555
H      1.229416     2.812813     6.214864
C      0.479649     0.953090     5.333915
H     -0.556104     0.988801     4.982298
H      0.487198     0.586059     6.367437
