32
Energy = -1142.572915821 Hartree (EUMP2 CORRECTED)
O      2.024914     0.649932     0.618411
C      2.372924     1.945017     0.088122
H      3.420706     1.889962    -0.224215
H      2.257800     2.715220     0.862366
C      0.600018     0.454915     0.419976
H      0.468910    -0.500218    -0.103900
H      0.086756     0.421569     1.385114
C      1.380584     2.166513    -1.042347
H      1.656453     1.553609    -1.910674
H      1.261680     3.209292    -1.348378
C      0.097322     1.641121    -0.403865
H     -0.665805     1.362868    -1.136479
O     -0.398809     2.651194     0.484956
P     -2.001423     3.065620     0.304295
O     -2.307485     3.371204    -1.147074
O     -2.360350     3.986835     1.444448
O     -2.582052     1.509647     0.625884
C     -3.954503     1.253691     0.327494
H     -4.001894     0.472795    -0.443384
H     -4.454411     2.151484    -0.063172
C     -4.660778     0.771968     1.582754
H     -5.709030     0.549617     1.332960
O     -4.090308    -0.483812     2.028610
C     -3.209365    -0.179265     3.124014
H     -3.057735    -1.112579     3.676166
H     -2.251947     0.193931     2.741523
C     -3.949877     0.901453     3.900331
H     -3.293580     1.476296     4.563062
H     -4.743395     0.441204     4.502531
C     -4.533406     1.756078     2.765685
H     -3.851817     2.573848     2.508713
H     -5.505458     2.188441     3.029372
