32
Energy = -1142.569036784 Hartree (EUMP2 CORRECTED)
O      0.446770    -0.315414     0.201065
C      1.612514     0.523963     0.087618
H      2.453909    -0.133331    -0.151888
H      1.805144     1.040369     1.037927
C     -0.708232     0.521955    -0.047792
H     -1.353112    -0.019592    -0.749529
H     -1.247866     0.709246     0.886580
C      1.248785     1.521677    -0.999563
H      1.292395     1.036300    -1.984040
H      1.860235     2.427463    -1.000975
C     -0.198857     1.850303    -0.622090
H     -0.813798     2.195010    -1.461811
O     -0.214265     2.824429     0.424570
P     -0.511525     4.417160    -0.011196
O     -0.422109     5.227395     1.249451
O     -1.680375     4.436213    -0.979239
O      0.881132     4.743861    -0.909401
C      0.823860     4.808231    -2.332830
H     -0.174300     4.517604    -2.678186
H      1.559198     4.101275    -2.741657
C      1.127785     6.228328    -2.855061
H      2.179722     6.306700    -3.155532
O      0.369234     6.492873    -4.053266
C     -0.937550     6.955566    -3.624713
H     -1.234809     7.729277    -4.340837
H     -1.654515     6.127322    -3.674722
C     -0.784907     7.471125    -2.180508
H     -1.350386     6.835929    -1.494444
H     -1.138452     8.502759    -2.073264
C      0.722655     7.345695    -1.903443
H      0.943372     7.113139    -0.859323
H      1.252709     8.260249    -2.197552
