32
Energy = -1142.551949008 Hartree (EUMP2 CORRECTED)
O      2.168297     0.713369     0.003394
C      1.864314     1.842032    -0.847769
H      2.596312     1.830454    -1.661023
H      1.942670     2.781161    -0.287297
C      0.939572     0.309144     0.645437
H      0.813239    -0.767418     0.469087
H      0.992862     0.506437     1.721365
C      0.428597     1.611330    -1.285920
H      0.382617     0.809149    -2.036069
H     -0.045160     2.522413    -1.660395
C     -0.198780     1.128920     0.025790
H     -1.087654     0.507372    -0.119282
O     -0.479951     2.191333     0.934125
P     -1.370575     3.589196     0.611776
O     -0.581912     4.413848    -0.385313
O     -1.843636     4.091947     1.946234
O     -2.744106     3.075581    -0.223383
C     -3.093702     1.877035    -0.875285
H     -3.170601     1.038863    -0.167473
H     -2.371829     1.617392    -1.668072
C     -4.453637     2.091298    -1.523536
H     -4.669661     1.230838    -2.172200
O     -5.517957     2.128336    -0.561007
C     -5.596050     3.483311    -0.055912
H     -6.647171     3.647333     0.204654
H     -4.970522     3.577188     0.836083
C     -5.088675     4.400833    -1.184726
H     -4.289436     5.045969    -0.814756
H     -5.892910     5.028701    -1.585725
C     -4.549237     3.432821    -2.257022
H     -3.578596     3.754616    -2.647199
H     -5.254154     3.339537    -3.091761
