32
Energy = -1142.564736320 Hartree (EUMP2 CORRECTED)
O      0.619284    -0.199002    -0.321265
C      1.360853     0.834434    -1.009502
H      1.900089     0.343883    -1.825598
H      2.074891     1.305962    -0.322630
C     -0.551771     0.415567     0.265846
H     -1.428638    -0.149737    -0.076174
H     -0.484104     0.367505     1.358212
C      0.300233     1.827425    -1.451175
H     -0.261177     1.427886    -2.306598
H      0.671022     2.825618    -1.694649
C     -0.588445     1.869509    -0.209053
H     -1.599633     2.224843    -0.431273
O      0.023116     2.669631     0.806482
P     -0.219229     4.344061     0.767912
O     -0.973142     4.663613    -0.508184
O      1.075559     4.991091     1.174453
O     -1.320473     4.515156     2.026907
C     -1.836371     3.469707     2.833853
H     -1.533437     3.646578     3.875244
H     -1.446874     2.493718     2.515272
C     -3.355241     3.470650     2.748805
H     -3.741701     2.625472     3.338379
O     -3.898964     4.662146     3.368088
C     -4.274100     5.557047     2.306274
H     -4.981926     6.274862     2.732967
H     -3.388300     6.078326     1.923587
C     -4.866299     4.633861     1.250357
H     -4.922733     5.095915     0.258669
H     -5.872724     4.321367     1.556322
C     -3.877346     3.461880     1.295628
H     -3.054745     3.661632     0.602673
H     -4.342237     2.503584     1.035821
