32
Energy = -1142.572597289 Hartree (EUMP2 CORRECTED)
O      1.570764    -0.130710     0.116332
C      0.940419    -0.015615    -1.179783
H      1.050807    -0.986998    -1.672029
H      1.440927     0.759060    -1.774401
C      0.891328     0.772136     1.021330
H      0.548650     0.183236     1.882254
H      1.582881     1.552121     1.356426
C     -0.492693     0.385227    -0.877287
H     -1.059619    -0.479981    -0.507419
H     -1.012409     0.843614    -1.723113
C     -0.274323     1.392968     0.254495
H     -1.162696     1.547449     0.879605
O      0.175030     2.651251    -0.255519
P     -1.011589     3.626496    -0.964969
O     -2.184385     3.721613    -0.022876
O     -1.146366     3.219119    -2.422063
O     -0.151350     5.045686    -0.875406
C      0.923664     5.241684    -1.800343
H      1.013350     4.390367    -2.484809
H      1.856414     5.349102    -1.233258
C      0.637542     6.501377    -2.603869
H      0.665859     7.376703    -1.943397
O      1.702533     6.692844    -3.578096
C      1.171453     6.330800    -4.861987
H      1.802899     6.812070    -5.615485
H      1.210186     5.239563    -5.002093
C     -0.268040     6.819976    -4.819369
H     -0.900285     6.365236    -5.590545
H     -0.286735     7.909372    -4.948449
C     -0.679282     6.415396    -3.398179
H     -1.058219     5.387582    -3.373972
H     -1.451963     7.064916    -2.975935
