32
Energy = -1142.566438781 Hartree (EUMP2 CORRECTED)
O      1.558334     1.163406    -1.040342
C      1.667919     2.512141    -0.551055
H      2.481920     2.995557    -1.102020
H      1.900332     2.502816     0.521400
C      0.165029     0.768455    -0.966210
H     -0.190724     0.596461    -1.992740
H      0.074330    -0.146375    -0.384047
C      0.294201     3.120157    -0.790251
H      0.158868     3.349948    -1.855718
H      0.087710     4.010292    -0.189263
C     -0.601761     1.954206    -0.377288
H     -1.608775     2.005823    -0.814284
O     -0.741591     2.040176     1.044486
P     -0.804986     0.752363     2.099986
O     -1.842660    -0.248049     1.632058
O     -0.774805     1.340296     3.488970
O      0.705635     0.102008     1.734435
C      0.972623    -1.186312     2.300144
H      0.138409    -1.516846     2.934239
H      1.088998    -1.910010     1.481218
C      2.248492    -1.142906     3.124773
H      2.338415    -2.091439     3.672595
O      3.429431    -1.063528     2.304404
C      3.625266     0.332610     1.983072
H      4.706135     0.466387     1.860783
H      3.117271     0.559381     1.040849
C      3.032992     1.138300     3.156232
H      2.305326     1.870669     2.799070
H      3.813844     1.667765     3.715524
C      2.328832     0.084905     4.034939
H      1.340341     0.428213     4.356563
H      2.938080    -0.159293     4.913648
