32
Energy = -1142.561459855 Hartree (EUMP2 CORRECTED)
O      1.110539     0.051427     0.843723
C      1.987273     1.149604     0.515055
H      3.000622     0.739923     0.470213
H      1.934366     1.924766     1.291506
C     -0.215191     0.413347     0.390011
H     -0.627812    -0.460360    -0.129009
H     -0.847255     0.671360     1.246833
C      1.441733     1.666522    -0.804375
H      1.702772     0.969590    -1.612024
H      1.748083     2.680598    -1.075068
C     -0.063930     1.634081    -0.528037
H     -0.639195     1.553703    -1.453401
O     -0.428456     2.803618     0.208581
P     -1.261244     4.047711    -0.565439
O     -0.375510     4.649610    -1.628845
O     -1.926747     4.823673     0.542812
O     -2.444897     3.208714    -1.439885
C     -3.029212     1.970783    -1.055251
H     -2.741414     1.679335    -0.036861
H     -2.698674     1.190748    -1.761318
C     -4.550804     2.050740    -1.124722
H     -4.943368     1.023914    -1.149260
O     -5.134692     2.656641     0.033520
C     -5.091951     4.094431    -0.163154
H     -5.966488     4.493151     0.362045
H     -4.173420     4.494901     0.275614
C     -5.137835     4.322232    -1.687810
H     -4.284137     4.926384    -2.002030
H     -6.059429     4.829912    -1.996060
C     -5.051556     2.906661    -2.292456
H     -4.379193     2.865614    -3.155298
H     -6.042846     2.550825    -2.598000
