32
Energy = -1142.567863958 Hartree (EUMP2 CORRECTED)
O      0.458927    -0.012927     0.623551
C      1.263379     0.624517    -0.397920
H      1.754774    -0.176492    -0.959144
H      2.019026     1.268279     0.068197
C     -0.702936     0.815653     0.860578
H     -1.596806     0.208283     0.663017
H     -0.708650     1.151720     1.903087
C      0.280261     1.454159    -1.205655
H     -0.308269     0.812203    -1.875031
H      0.749453     2.259596    -1.777422
C     -0.609355     2.004877    -0.089470
H     -1.585354     2.357072    -0.445142
O      0.057751     3.056550     0.612028
P      0.113821     4.557087    -0.183493
O     -1.221928     4.757786    -0.867429
O      1.435164     4.660749    -0.906638
O      0.126148     5.518274     1.177390
C      0.396941     5.065479     2.500179
H      1.177185     5.714701     2.918347
H      0.748121     4.026918     2.504341
C     -0.857738     5.191731     3.351604
H     -0.623986     4.844342     4.369306
O     -1.231990     6.583904     3.487692
C     -2.314934     6.817445     2.567687
H     -2.812444     7.736326     2.894353
H     -1.925521     6.934126     1.549735
C     -3.165616     5.560570     2.688203
H     -3.845604     5.423419     1.840439
H     -3.752582     5.599864     3.614577
C     -2.087170     4.470416     2.754967
H     -1.860243     4.109483     1.750247
H     -2.387982     3.614620     3.370657
