32
Energy = -1142.570075134 Hartree (EUMP2 CORRECTED)
O      1.647183     0.432330     0.279433
C      1.882726     1.467103    -0.708567
H      2.729689     1.134503    -1.317767
H      2.138981     2.411557    -0.215569
C      0.226656     0.379070     0.549779
H     -0.127534    -0.631380     0.302353
H      0.046119     0.585702     1.609441
C      0.570317     1.584698    -1.464875
H      0.459185     0.753631    -2.175545
H      0.425311     2.530276    -1.991668
C     -0.438562     1.435955    -0.326501
H     -1.434202     1.137998    -0.674398
O     -0.513870     2.634466     0.448271
P     -1.444908     3.915257    -0.146737
O     -2.385685     4.316416     0.962844
O     -1.858477     3.613765    -1.567026
O     -0.223042     5.062693    -0.249265
C      0.688846     5.207531     0.835096
H      0.982618     4.227653     1.227354
H      0.223460     5.790755     1.647393
C      1.911824     5.936174     0.309501
H      2.597854     6.125527     1.147012
O      2.644717     5.097370    -0.614995
C      2.267754     5.503910    -1.941530
H      3.041640     5.129310    -2.619206
H      1.292993     5.075993    -2.202724
C      2.199092     7.023778    -1.847367
H      1.614341     7.475377    -2.656607
H      3.213788     7.439176    -1.874208
C      1.559505     7.227347    -0.465120
H      0.473095     7.313814    -0.554731
H      1.940651     8.120115     0.043279
