32
Energy = -1142.568122181 Hartree (EUMP2 CORRECTED)
O      1.507759    -0.212763    -0.159073
C      1.041499     0.125319    -1.485390
H      1.170618    -0.768923    -2.103137
H      1.640429     0.947806    -1.896484
C      0.761491     0.585270     0.790304
H      0.295289    -0.102331     1.508105
H      1.438201     1.267444     1.315341
C     -0.400253     0.559641    -1.288407
H     -1.041391    -0.316353    -1.119965
H     -0.796924     1.166560    -2.106925
C     -0.278602     1.376810     0.000468
H     -1.227730     1.488882     0.539592
O      0.278478     2.668549    -0.259693
P     -0.779760     3.808331    -0.922840
O     -2.025804     3.867201    -0.075972
O     -0.809884     3.608840    -2.427829
O      0.146330     5.140595    -0.571706
C      1.309703     5.383796    -1.369875
H      1.369737     4.656443    -2.185799
H      2.187011     5.256683    -0.722461
C      1.299353     6.803687    -1.981494
H      2.102670     7.410473    -1.547452
O      1.593123     6.752790    -3.393692
C      0.348157     6.392777    -4.045115
H      0.377963     6.861980    -5.033712
H      0.286363     5.304185    -4.153630
C     -0.789155     6.904922    -3.139012
H     -1.418501     6.066225    -2.832465
H     -1.415426     7.649192    -3.644064
C     -0.053669     7.507008    -1.928692
H     -0.581907     7.338238    -0.987923
H      0.114313     8.581894    -2.069084
