32
Energy = -1142.568841305 Hartree (EUMP2 CORRECTED)
O      1.232585    -0.320436     0.346826
C      2.164364     0.748383     0.102338
H      3.144454     0.287171    -0.055287
H      2.207538     1.424825     0.966899
C     -0.084438     0.155363    -0.034356
H     -0.530703    -0.611627    -0.678389
H     -0.704004     0.302791     0.855572
C      1.593843     1.467968    -1.110342
H      1.769351     0.870671    -2.015475
H      1.987807     2.478025    -1.253105
C      0.104602     1.494618    -0.760517
H     -0.569776     1.575574    -1.618820
O     -0.128229     2.565765     0.153973
P     -1.365161     3.679871    -0.145942
O     -1.674734     4.331301     1.169764
O     -2.354133     3.002616    -1.073179
O     -0.534861     4.836158    -1.041900
C     -0.204127     4.554935    -2.395806
H     -1.102822     4.592733    -3.023889
H      0.250744     3.558524    -2.503133
C      0.807875     5.592693    -2.849665
H      1.119904     5.353850    -3.876218
O      0.215520     6.908260    -2.918056
C      0.546304     7.578308    -1.688125
H      0.397807     8.648475    -1.863255
H     -0.109600     7.228476    -0.883445
C      1.996932     7.179851    -1.438332
H      2.299537     7.310254    -0.393484
H      2.658420     7.782226    -2.072715
C      2.006793     5.706747    -1.878577
H      1.843560     5.051528    -1.018172
H      2.948331     5.424923    -2.363697
