32
Energy = -1142.574686473 Hartree (EUMP2 CORRECTED)
O      1.408804     0.183229     0.359111
C      1.794151     1.261391    -0.520911
H      2.612903     0.887420    -1.144065
H      2.142012     2.120614     0.068117
C     -0.003416     0.333429     0.658103
H     -0.501654    -0.604083     0.379208
H     -0.138797     0.523829     1.726746
C      0.523936     1.606906    -1.280385
H      0.322751     0.837243    -2.039037
H      0.523129     2.586146    -1.763615
C     -0.511457     1.519274    -0.162696
H     -1.536286     1.357227    -0.514588
O     -0.448818     2.697871     0.651098
P     -1.803899     3.695640     0.605102
O     -1.440957     4.933647     1.382600
O     -3.036655     2.847718     0.801442
O     -1.799211     4.057854    -1.045406
C     -0.897192     5.079001    -1.467794
H      0.137771     4.822367    -1.201785
H     -1.145856     6.032532    -0.979460
C     -1.022607     5.209295    -2.973683
H     -0.381875     6.035053    -3.312849
O     -0.514688     4.024571    -3.635929
C     -1.650831     3.210399    -3.971069
H     -1.322452     2.511341    -4.746906
H     -1.992921     2.661489    -3.085386
C     -2.695885     4.218295    -4.434425
H     -3.715250     3.817155    -4.410848
H     -2.468205     4.537170    -5.458764
C     -2.487324     5.371179    -3.440320
H     -3.156266     5.261967    -2.582233
H     -2.659935     6.351814    -3.897491
