32
Energy = -1142.554399379 Hartree (EUMP2 CORRECTED)
O      1.086960    -0.345774     0.804023
C      2.043712     0.592529     0.283557
H      2.963592     0.034444     0.085590
H      2.241669     1.387702     1.015848
C     -0.218143     0.249713     0.611746
H     -0.887784    -0.550757     0.279395
H     -0.585483     0.679560     1.549721
C      1.360664     1.161183    -0.950676
H      1.375755     0.416541    -1.758236
H      1.795134     2.101444    -1.301288
C     -0.064074     1.378098    -0.428015
H     -0.840021     1.299214    -1.194946
O     -0.134358     2.621601     0.250244
P     -1.005295     3.966872    -0.281985
O     -0.368650     5.163893     0.363549
O     -2.467151     3.581233    -0.188703
O     -0.680283     4.128672    -1.931489
C     -0.650522     3.143508    -2.944082
H     -1.542067     2.499605    -2.906080
H      0.253310     2.522149    -2.869855
C     -0.623888     3.860285    -4.286791
H     -0.397657     3.122877    -5.069626
O     -1.896849     4.420500    -4.639682
C     -1.993313     5.710252    -3.990081
H     -2.619752     6.329799    -4.640714
H     -2.475263     5.590468    -3.015663
C     -0.551439     6.233859    -3.839051
H     -0.346420     6.478430    -2.794880
H     -0.379859     7.125003    -4.454146
C      0.332118     5.057550    -4.300382
H      1.191405     4.905988    -3.639550
H      0.695282     5.216581    -5.322915
