32
Energy = -1142.570573178 Hartree (EUMP2 CORRECTED)
O      1.093665     0.012524     0.457869
C      1.932315     1.189175     0.453695
H      2.967073     0.840271     0.527836
H      1.694418     1.821550     1.319292
C     -0.109039     0.323304    -0.287162
H     -0.219080    -0.438116    -1.070061
H     -0.976153     0.299610     0.380299
C      1.589701     1.896001    -0.845888
H      2.044257     1.365063    -1.693753
H      1.853284     2.954716    -0.895628
C      0.071962     1.723736    -0.874038
H     -0.352284     1.810312    -1.882008
O     -0.557750     2.644927     0.023302
P     -0.944412     4.149127    -0.610418
O     -2.391062     4.192099    -1.041368
O      0.174675     4.592956    -1.538243
O     -0.757720     4.906064     0.868910
C     -0.993381     6.317710     0.874209
H     -1.859267     6.524295     1.516408
H     -1.211159     6.691018    -0.136765
C      0.232027     7.033188     1.415950
H      0.067090     8.116671     1.331515
O      0.429067     6.783204     2.821575
C      1.189252     5.560147     2.944023
H      1.810691     5.676654     3.839162
H      0.503121     4.717742     3.079281
C      2.001350     5.407278     1.644191
H      1.769350     4.455868     1.162129
H      3.080512     5.450435     1.834614
C      1.536371     6.578093     0.757454
H      1.384197     6.261760    -0.279524
H      2.260057     7.401660     0.790962
