32
Energy = -1142.572880435 Hartree (EUMP2 CORRECTED)
O      0.847101    -0.168834    -0.369352
C      1.684083     0.829200     0.259056
H      2.716851     0.478528     0.167490
H      1.419134     0.924437     1.319897
C     -0.325416     0.500752    -0.892088
H     -0.394453     0.263493    -1.961831
H     -1.219553     0.139890    -0.373163
C      1.378727     2.113368    -0.491789
H      1.863810     2.100628    -1.477461
H      1.636475     3.036807     0.031761
C     -0.135619     1.998321    -0.651904
H     -0.534459     2.608090    -1.471217
O     -0.797056     2.320759     0.578877
P     -1.185899     3.930686     0.829332
O     -0.082353     4.801497     0.271941
O     -1.728373     4.045858     2.233889
O     -2.483402     3.933083    -0.245164
C     -3.583127     4.808068    -0.008518
H     -3.678676     5.483419    -0.869116
H     -3.429986     5.400178     0.904404
C     -4.852437     3.983982     0.136933
H     -5.703876     4.667610     0.270092
O     -5.125468     3.254210    -1.084351
C     -4.639451     1.914309    -0.887910
H     -5.136283     1.286826    -1.635348
H     -3.553078     1.886092    -1.029543
C     -5.014882     1.592036     0.553328
H     -4.419903     0.773410     0.973154
H     -6.075477     1.315374     0.602624
C     -4.757367     2.930799     1.262843
H     -3.763401     2.960665     1.718631
H     -5.494366     3.126251     2.050125
