32
Energy = -1142.565454489 Hartree (EUMP2 CORRECTED)
O      1.373034     0.065369     0.256316
C      1.706294     1.113529    -0.677715
H      2.454112     0.701864    -1.362093
H      2.136287     1.975759    -0.153004
C      0.076447     0.395130     0.807409
H     -0.496243    -0.538026     0.852592
H      0.186523     0.812262     1.815325
C      0.374623     1.466251    -1.318050
H      0.084490     0.678901    -2.026973
H      0.351759     2.434898    -1.821885
C     -0.566128     1.446725    -0.109727
H     -1.595889     1.202932    -0.388909
O     -0.556246     2.695331     0.599034
P     -1.547894     3.927293     0.003887
O     -1.797794     4.837347     1.179244
O     -2.603794     3.326598    -0.890933
O     -0.465882     4.700839    -1.037334
C      0.854856     4.955494    -0.572934
H      1.266450     4.093275    -0.039084
H      0.824948     5.806739     0.124721
C      1.768026     5.289438    -1.754461
H      2.473588     6.080973    -1.457948
O      2.579507     4.110961    -2.067138
C      2.577574     3.874740    -3.484200
H      3.591644     3.582247    -3.779518
H      1.889436     3.048141    -3.715148
C      2.095361     5.176341    -4.111464
H      1.663934     5.032345    -5.108605
H      2.924611     5.890981    -4.192049
C      1.075861     5.633923    -3.071108
H      0.146439     5.062309    -3.143779
H      0.825546     6.698752    -3.138148
