32
Energy = -1142.568965436 Hartree (EUMP2 CORRECTED)
O      0.834467    -0.269942     0.588703
C      1.451380     0.545118    -0.424122
H      2.188111    -0.085265    -0.931821
H      1.963012     1.401353     0.038659
C     -0.430598     0.356859     0.910373
H     -1.160106    -0.450891     1.032489
H     -0.345154     0.926004     1.843374
C      0.287119     0.997871    -1.290297
H     -0.047395     0.163487    -1.920395
H      0.481397     1.867184    -1.924222
C     -0.780535     1.316349    -0.238074
H     -1.792363     1.168779    -0.627802
O     -0.660716     2.651338     0.269119
P     -1.315228     3.893394    -0.679343
O     -1.688478     4.982765     0.292157
O     -2.221623     3.288493    -1.722518
O      0.077393     4.377134    -1.503872
C      1.271030     4.532855    -0.740582
H      1.669564     3.558892    -0.426676
H      1.088037     5.138545     0.156284
C      2.266691     5.216261    -1.657185
H      1.913875     6.226410    -1.897312
O      3.537536     5.369394    -0.959996
C      4.509002     4.533853    -1.601685
H      5.492269     4.975174    -1.410583
H      4.486637     3.518213    -1.174630
C      4.089454     4.515568    -3.064195
H      4.535810     3.691302    -3.632621
H      4.372522     5.461586    -3.541434
C      2.569111     4.404028    -2.925503
H      2.271165     3.359412    -2.775431
H      2.015653     4.777458    -3.791299
