32
Energy = -1142.566382598 Hartree (EUMP2 CORRECTED)
O      1.216237    -0.142311     0.231752
C      1.837086     1.097662    -0.164231
H      2.837083     0.847757    -0.531813
H      1.916647     1.776074     0.695593
C     -0.217171     0.049688     0.152158
H     -0.627170    -0.803961    -0.401064
H     -0.649568     0.085074     1.157317
C      0.894704     1.667614    -1.211003
H      0.999366     1.109006    -2.151762
H      1.017398     2.736077    -1.399435
C     -0.462807     1.384212    -0.565467
H     -1.285163     1.312919    -1.287324
O     -0.747543     2.366081     0.425536
P     -1.685395     3.711300     0.056318
O     -1.110988     4.867305     0.829775
O     -3.148735     3.321449     0.070552
O     -1.248800     3.820073    -1.579575
C     -2.247423     4.365380    -2.442483
H     -2.550851     5.364782    -2.103659
H     -3.134637     3.715263    -2.442223
C     -1.673532     4.470560    -3.843739
H     -2.485273     4.757611    -4.525926
O     -0.698179     5.532419    -3.942226
C      0.590123     4.928297    -3.750611
H      1.332366     5.637125    -4.130697
H      0.759664     4.742881    -2.684118
C      0.503888     3.627867    -4.545148
H      1.237732     2.881205    -4.222313
H      0.669189     3.838768    -5.608401
C     -0.948821     3.181627    -4.299096
H     -0.998867     2.430611    -3.506492
H     -1.406177     2.762256    -5.202117
