32
Energy = -1142.572541384 Hartree (EUMP2 CORRECTED)
O      1.227644     0.033942     0.621078
C      1.852357     1.090156    -0.139722
H      2.770263     0.674239    -0.566633
H      2.104410     1.930897     0.520927
C     -0.198919     0.288543     0.635626
H     -0.696984    -0.630083     0.300731
H     -0.522294     0.538301     1.651542
C      0.803420     1.497609    -1.159694
H      0.738424     0.735553    -1.948795
H      0.962426     2.480727    -1.610406
C     -0.466170     1.465253    -0.304771
H     -1.381240     1.342468    -0.894538
O     -0.578389     2.643967     0.504427
P     -1.337750     3.983057    -0.182186
O     -1.546044     4.961422     0.945496
O     -2.388928     3.500987    -1.151278
O     -0.074296     4.541516    -1.147796
C      0.994874     5.207536    -0.484742
H      1.555004     4.482199     0.125447
H      0.621508     5.997681     0.180594
C      1.895070     5.790837    -1.564095
H      2.870563     6.023982    -1.112367
O      2.166546     4.850616    -2.619943
C      1.314672     5.207880    -3.722238
H      1.743328     4.744270    -4.616205
H      0.301259     4.827773    -3.545495
C      1.349077     6.733784    -3.726656
H      0.524657     7.178772    -4.295301
H      2.297282     7.078598    -4.156665
C      1.279282     7.045045    -2.223704
H      0.235490     7.149762    -1.907994
H      1.816629     7.958470    -1.948016
