32
Energy = -1142.561870598 Hartree (EUMP2 CORRECTED)
O      0.258559    -0.523845     0.822976
C      1.109720    -0.344452    -0.337918
H      0.803974    -1.098704    -1.071420
H      2.151709    -0.540975    -0.052059
C     -0.165428     0.785297     1.223938
H     -1.079103     0.670365     1.813455
H      0.601496     1.296496     1.824569
C      0.905715     1.093413    -0.838387
H      0.791271     1.151494    -1.921782
H      1.736933     1.745612    -0.550593
C     -0.349547     1.558263    -0.078543
H     -1.262736     1.231258    -0.596673
O     -0.479119     2.936010     0.243110
P      0.271070     4.219821    -0.514117
O      1.687100     4.374327     0.000181
O     -0.716673     5.361556    -0.552181
O      0.366613     3.504900    -2.035598
C      1.210569     4.133530    -2.996463
H      2.053978     3.463190    -3.214251
H      1.616159     5.082889    -2.618860
C      0.404130     4.377445    -4.258950
H      1.058265     4.828052    -5.019927
O     -0.038303     3.114982    -4.819319
C     -1.419052     2.950220    -4.452218
H     -1.845512     2.219880    -5.147864
H     -1.490557     2.578759    -3.422806
C     -2.002547     4.351840    -4.573298
H     -2.940700     4.472621    -4.020396
H     -2.184673     4.582479    -5.630478
C     -0.867632     5.213986    -4.001748
H     -1.004764     5.371919    -2.926463
H     -0.804777     6.194031    -4.488306
