32
Energy = -1142.555864674 Hartree (EUMP2 CORRECTED)
O      1.687951     0.225158    -0.063421
C      2.047575     1.404632    -0.810323
H      2.889546     1.128128    -1.452573
H      2.365290     2.199707    -0.120807
C      0.294907     0.361428     0.311542
H     -0.194141    -0.590655     0.074279
H      0.212456     0.563447     1.385306
C      0.777492     1.787626    -1.551298
H      0.625006     1.099388    -2.393715
H      0.748806     2.814536    -1.925749
C     -0.288170     1.535024    -0.483891
H     -1.265059     1.310725    -0.922805
O     -0.421255     2.642339     0.421450
P     -1.391859     3.931080    -0.087416
O     -1.996161     4.500385     1.171521
O     -2.168113     3.516601    -1.313522
O     -0.209408     5.005524    -0.629289
C      1.091668     5.053804    -0.075481
H      1.161093     5.917394     0.605583
H      1.286574     4.150850     0.513539
C      2.155840     5.189168    -1.202695
H      2.938379     4.432955    -1.063511
O      1.641073     4.971248    -2.516185
C      1.036250     6.210432    -2.954676
H      1.346735     6.355699    -3.996196
H     -0.050664     6.109181    -2.895474
C      1.573381     7.308948    -2.015208
H      0.795923     7.599181    -1.300841
H      1.892889     8.206060    -2.557449
C      2.724842     6.603012    -1.280359
H      2.947211     7.038387    -0.300159
H      3.639176     6.604748    -1.886338
