32
Energy = -1142.562800631 Hartree (EUMP2 CORRECTED)
O      1.251218     0.034362     0.542528
C      2.070625     1.110499     0.046512
H      3.031699     0.671811    -0.239912
H      2.225642     1.864385     0.829835
C     -0.133731     0.414716     0.344172
H     -0.629287    -0.424431    -0.159816
H     -0.612291     0.610430     1.308957
C      1.267331     1.694685    -1.104776
H      1.319920     1.030745    -1.978282
H      1.574130     2.706874    -1.383536
C     -0.143400     1.691578    -0.507615
H     -0.937215     1.661995    -1.258845
O     -0.285825     2.813952     0.352540
P     -1.318116     4.130238     0.114107
O     -0.435762     5.331216    -0.141926
O     -2.407281     4.059383     1.150327
O     -2.063533     3.722050    -1.345260
C     -1.314892     3.860487    -2.551046
H     -0.327187     3.392017    -2.479756
H     -1.162146     4.926703    -2.778059
C     -2.113536     3.193063    -3.654272
H     -1.581508     3.320144    -4.607757
O     -2.183485     1.762311    -3.429200
C     -3.483720     1.479926    -2.882493
H     -3.670865     0.413930    -3.045673
H     -3.497098     1.708546    -1.809630
C     -4.411734     2.408395    -3.654935
H     -5.376560     2.558551    -3.157943
H     -4.592052     1.998421    -4.656104
C     -3.573475     3.692408    -3.727929
H     -3.782620     4.332221    -2.865865
H     -3.759096     4.264940    -4.643496
