32
Energy = -1142.569128361 Hartree (EUMP2 CORRECTED)
O      0.609228     0.077133     0.796935
C      1.397342     0.713933    -0.237700
H      1.985417    -0.074482    -0.717993
H      2.068463     1.458197     0.207660
C     -0.635764     0.803102     0.922597
H     -1.457843     0.099882     0.730892
H     -0.724622     1.206633     1.936911
C      0.380277     1.387208    -1.142830
H     -0.115467     0.646362    -1.784747
H      0.800206     2.190563    -1.754310
C     -0.606826     1.928171    -0.106433
H     -1.593413     2.161151    -0.525406
O     -0.071620     3.083264     0.543483
P     -0.103317     4.521901    -0.364189
O     -1.410402     4.565661    -1.122176
O      1.248585     4.674744    -1.022047
O     -0.247366     5.570095     0.921492
C      0.288928     5.295246     2.214106
H      1.037338     6.065113     2.444365
H      0.764055     4.307460     2.249610
C     -0.830570     5.363740     3.240787
H     -0.405147     5.156672     4.233820
O     -1.367301     6.705878     3.316659
C     -2.575124     6.716793     2.532998
H     -3.146457     7.595747     2.848451
H     -2.330593     6.782200     1.466830
C     -3.233602     5.384429     2.866913
H     -3.978878     5.080502     2.123713
H     -3.718862     5.449735     3.848783
C     -2.023556     4.439268     2.907741
H     -1.867490     3.968330     1.934870
H     -2.136362     3.647857     3.657946
