32
Energy = -1142.569725452 Hartree (EUMP2 CORRECTED)
O      1.630100    -0.022678    -0.328015
C      2.300266     1.226813    -0.047250
H      3.365000     1.064583    -0.241923
H      2.153194     1.505886     1.003737
C      0.278261     0.284759    -0.748057
H      0.117317    -0.197322    -1.721014
H     -0.435960    -0.106443    -0.016463
C      1.629473     2.230807    -0.968951
H      1.975605     2.090581    -2.001919
H      1.764036     3.276438    -0.681014
C      0.166770     1.805646    -0.841005
H     -0.451922     2.146488    -1.677633
O     -0.379283     2.266080     0.398005
P     -0.918525     3.847519     0.467488
O     -0.878734     4.453820    -0.920952
O     -0.290814     4.519847     1.668366
O     -2.501917     3.445355     0.852409
C     -3.476131     4.480343     0.702964
H     -4.183083     4.178031    -0.080598
H     -3.012329     5.429998     0.400049
C     -4.216989     4.667915     2.015521
H     -4.972834     5.456005     1.881448
O     -4.958817     3.470597     2.354393
C     -4.173406     2.754408     3.324420
H     -4.852851     2.058774     3.827879
H     -3.370207     2.203581     2.821457
C     -3.614002     3.850485     4.222254
H     -2.738926     3.525747     4.796012
H     -4.390949     4.182365     4.922469
C     -3.272948     4.950123     3.204966
H     -2.227975     4.872684     2.886769
H     -3.436330     5.954624     3.612045
