32
Energy = -1142.567244872 Hartree (EUMP2 CORRECTED)
O      1.130958    -0.275421     0.637286
C      1.837734     0.638650    -0.226105
H      2.679015     0.083955    -0.652705
H      2.212329     1.494841     0.350605
C     -0.234823     0.195273     0.736237
H     -0.887801    -0.667609     0.557756
H     -0.421827     0.603993     1.734545
C      0.790833     1.087300    -1.231383
H      0.593572     0.281010    -1.951917
H      1.034567     2.007805    -1.766132
C     -0.418804     1.296506    -0.317395
H     -1.379482     1.198277    -0.838446
O     -0.327873     2.553523     0.345134
P     -1.074258     3.906017    -0.329108
O     -0.141413     5.065966    -0.102540
O     -2.541743     3.889336     0.035889
O     -0.953570     3.463249    -1.953713
C     -2.113171     3.301376    -2.764525
H     -2.996353     3.711218    -2.263265
H     -2.277309     2.224303    -2.948509
C     -1.877744     3.993519    -4.097087
H     -2.674048     3.688724    -4.791081
O     -1.970735     5.421508    -4.001894
C     -0.676206     5.921795    -3.584906
H     -0.568747     6.904398    -4.057155
H     -0.649350     6.028183    -2.496975
C      0.366321     4.893609    -4.066477
H      0.955356     4.543001    -3.216605
H      1.044416     5.321346    -4.814505
C     -0.474032     3.747423    -4.662552
H     -0.086432     2.760132    -4.388948
H     -0.509028     3.817834    -5.756505
