32
Energy = -1142.561578481 Hartree (EUMP2 CORRECTED)
O      1.040494    -0.536297     0.290744
C      0.104685    -0.670940    -0.805500
H     -0.054332    -1.743539    -0.956271
H      0.527594    -0.227885    -1.715493
C      0.725958     0.685935     1.000060
H      0.504959     0.422207     2.043315
H      1.584779     1.364045     0.963588
C     -1.128276     0.097346    -0.363231
H     -1.697810    -0.482522     0.375925
H     -1.778006     0.397172    -1.189957
C     -0.480786     1.311243     0.308267
H     -1.150203     1.835211     1.001960
O      0.017249     2.228617    -0.666726
P     -1.153138     3.177882    -1.451180
O     -2.110045     3.727578    -0.424134
O     -1.600171     2.409805    -2.679647
O     -0.113342     4.395379    -1.916769
C      1.135315     3.995235    -2.476265
H      1.801934     3.597195    -1.700565
H      0.957574     3.211020    -3.227899
C      1.783774     5.197701    -3.141440
H      0.988924     5.891876    -3.438522
O      2.644450     5.934957    -2.227285
C      3.989250     5.861714    -2.708419
H      4.515138     6.750436    -2.345719
H      4.494746     4.965276    -2.312165
C      3.852922     5.775442    -4.223293
H      4.760941     5.416229    -4.721524
H      3.595739     6.760976    -4.629168
C      2.670824     4.813145    -4.336795
H      3.021564     3.777856    -4.227834
H      2.124423     4.881143    -5.282659
