32
Energy = -1142.574074352 Hartree (EUMP2 CORRECTED)
O      1.181377    -0.109932    -0.875458
C      1.735611     1.118286    -1.400188
H      2.347594     0.843712    -2.264953
H      2.360880     1.604652    -0.641295
C     -0.084720     0.207726    -0.249664
H     -0.849540    -0.435635    -0.704437
H     -0.025652     0.010832     0.826048
C      0.522507     1.973472    -1.723429
H      0.034371     1.615192    -2.639845
H      0.737520     3.041319    -1.817750
C     -0.359827     1.687921    -0.506962
H     -1.417056     1.913813    -0.684758
O      0.110627     2.411357     0.632302
P     -0.296284     4.049930     0.733010
O     -1.534350     4.238562    -0.127188
O      0.941123     4.897258     0.621029
O     -0.745792     4.061547     2.337582
C     -1.824046     3.210304     2.730541
H     -1.435675     2.462914     3.434861
H     -2.254850     2.696285     1.860397
C     -2.911705     4.035487     3.396814
H     -3.763863     3.375571     3.612953
O     -2.497352     4.558751     4.673229
C     -1.807103     5.804690     4.426139
H     -2.002061     6.438033     5.298841
H     -0.732704     5.614157     4.340895
C     -2.372220     6.373906     3.111078
H     -1.565026     6.565123     2.400577
H     -2.916188     7.310835     3.279284
C     -3.308051     5.269116     2.581756
H     -3.180725     5.103241     1.507184
H     -4.355791     5.515575     2.792537
