32
Energy = -1142.566239770 Hartree (EUMP2 CORRECTED)
O      1.605758     0.451447     1.105766
C      1.803260     1.869968     0.912846
H      2.880856     2.049635     0.976996
H      1.284850     2.435129     1.697720
C      0.389741     0.080470     0.414468
H      0.630600    -0.762748    -0.245722
H     -0.375643    -0.219265     1.137598
C      1.188782     2.155929    -0.446421
H      1.844720     1.788655    -1.247641
H      0.950721     3.207215    -0.622202
C     -0.080867     1.306318    -0.372519
H     -0.479739     1.042761    -1.357954
O     -1.076925     1.951416     0.418371
P     -2.029962     3.205539    -0.150648
O     -1.659686     4.479678     0.573074
O     -3.457528     2.716187    -0.264036
O     -1.360467     3.261399    -1.701317
C     -1.643085     4.425347    -2.478030
H     -0.692847     4.931470    -2.695735
H     -2.285886     5.126568    -1.927684
C     -2.311621     4.020513    -3.779441
H     -2.482870     4.926535    -4.380030
O     -1.417293     3.192467    -4.566451
C     -1.870200     1.835748    -4.434698
H     -1.452228     1.278125    -5.279339
H     -1.510082     1.410712    -3.489565
C     -3.388239     1.951089    -4.439604
H     -3.886352     1.065365    -4.029619
H     -3.739703     2.109173    -5.467051
C     -3.602419     3.200451    -3.574444
H     -3.714415     2.926891    -2.519466
H     -4.488232     3.770674    -3.876631
