32
Energy = -1142.568131083 Hartree (EUMP2 CORRECTED)
O      0.429604    -0.424505    -0.136017
C      1.330799     0.302983    -1.006606
H      1.915451    -0.442337    -1.555420
H      2.000698     0.931687    -0.408192
C     -0.798705     0.325845    -0.036647
H     -1.614060    -0.293648    -0.438341
H     -0.997996     0.562645     1.013368
C      0.426034     1.155272    -1.875610
H     -0.070079     0.530761    -2.632168
H      0.936484     1.998336    -2.343800
C     -0.619931     1.607157    -0.851972
H     -1.558512     1.941915    -1.318188
O     -0.150491     2.597216     0.061546
P      0.541462     4.074580    -0.383843
O     -0.548091     5.123977    -0.309004
O      1.456734     3.909926    -1.572648
O      1.523296     4.205187     0.952326
C      0.911083     4.430657     2.225387
H      1.112937     3.557853     2.859519
H     -0.173890     4.562384     2.117906
C      1.505164     5.678182     2.856494
H      1.035328     5.827921     3.839314
O      2.916379     5.504907     3.123436
C      3.623254     6.084800     2.010987
H      4.647890     6.266562     2.351711
H      3.622882     5.389967     1.164350
C      2.836824     7.352129     1.691926
H      2.997891     7.699193     0.665450
H      3.133825     8.152084     2.381221
C      1.382021     6.919934     1.945614
H      0.868832     6.652970     1.017264
H      0.802792     7.711143     2.434970
