32
Energy = -1142.572736972 Hartree (EUMP2 CORRECTED)
O      1.350070    -0.012736    -0.826609
C      1.734609     1.196177    -1.514958
H      2.302268     0.889031    -2.398872
H      2.365365     1.817711    -0.866056
C      0.132915     0.267736    -0.090548
H     -0.597066    -0.505053    -0.363394
H      0.332286     0.228512     0.985458
C      0.416711     1.893511    -1.809900
H     -0.100096     1.388582    -2.637010
H      0.508587     2.961317    -2.027042
C     -0.328475     1.671086    -0.493459
H     -1.415927     1.757939    -0.586447
O      0.150297     2.608547     0.471370
P     -0.883508     3.803895     1.064074
O     -2.271292     3.500839     0.525369
O     -0.199388     5.137895     0.959134
O     -0.836523     3.394566     2.683168
C     -1.505672     2.203846     3.098238
H     -0.762937     1.527988     3.543780
H     -1.988792     1.706764     2.245343
C     -2.569950     2.543005     4.128747
H     -3.117446     1.622644     4.377288
O     -1.999570     2.999679     5.369635
C     -1.776524     4.423576     5.246947
H     -1.919428     4.840288     6.250379
H     -0.749055     4.602516     4.915358
C     -2.788777     4.947418     4.210711
H     -2.269803     5.463040     3.399649
H     -3.504811     5.643471     4.663436
C     -3.493112     3.680598     3.686340
H     -3.622767     3.698731     2.599648
H     -4.470379     3.553829     4.168011
