32
Energy = -1142.566766131 Hartree (EUMP2 CORRECTED)
O      0.221990    -0.359088    -0.488543
C      1.486543    -0.018798     0.098635
H      2.134568    -0.895183    -0.003807
H      1.365759     0.228342     1.163256
C     -0.441947     0.893406    -0.818306
H     -0.884455     0.769488    -1.812035
H     -1.230313     1.107590    -0.093005
C      1.931532     1.202330    -0.691306
H      2.257844     0.895939    -1.693343
H      2.720832     1.790380    -0.212886
C      0.628614     1.995838    -0.781443
H      0.589062     2.648001    -1.657178
O      0.534148     2.773950     0.424919
P     -0.627925     3.987827     0.467893
O     -0.927936     4.259327     1.916233
O     -1.674431     3.674802    -0.583128
O      0.255334     5.298572    -0.129816
C      1.610890     5.290966    -0.534938
H      2.075315     4.313962    -0.359929
H      2.156408     6.045037     0.058156
C      1.711678     5.657812    -2.009471
H      2.775599     5.760590    -2.273452
O      1.198201     4.591146    -2.837541
C     -0.118400     4.981720    -3.288607
H     -0.329227     4.385579    -4.182447
H     -0.859450     4.764084    -2.509972
C      0.030353     6.473428    -3.557220
H     -0.931740     6.996368    -3.599068
H      0.555754     6.629537    -4.507822
C      0.897906     6.919518    -2.372438
H      0.265373     7.198614    -1.525063
H      1.549908     7.765343    -2.619247
