32
Energy = -1142.565548956 Hartree (EUMP2 CORRECTED)
O      1.582964     0.118164     0.283835
C      2.092328     1.466031     0.217535
H      3.177137     1.388546     0.093732
H      1.863842     2.004405     1.147254
C      0.206808     0.150114    -0.170159
H      0.098487    -0.632138    -0.931328
H     -0.468535    -0.048975     0.668212
C      1.356749     2.088905    -0.956763
H      1.766703     1.706725    -1.901849
H      1.350039     3.181174    -0.964468
C     -0.058115     1.548965    -0.733882
H     -0.672958     1.528032    -1.640729
O     -0.722527     2.312310     0.278771
P     -1.753881     3.533326    -0.219608
O     -2.432701     4.058083     1.015736
O     -2.473826     3.095753    -1.479640
O     -0.543083     4.621210    -0.695454
C     -0.862176     5.517604    -1.757823
H     -1.570722     6.283065    -1.404336
H     -1.328856     4.978981    -2.589246
C      0.422780     6.230697    -2.199134
H      0.867626     5.701000    -3.050867
O      0.108546     7.558373    -2.700271
C      0.532005     8.493191    -1.699643
H      0.627120     9.466623    -2.189971
H     -0.217737     8.566097    -0.895736
C      1.833135     7.903049    -1.175960
H      2.149465     8.331691    -0.218000
H      2.628786     8.067530    -1.912626
C      1.460701     6.418078    -1.073670
H      1.002477     6.191849    -0.106752
H      2.319197     5.750601    -1.195981
