32
Energy = -1142.568698032 Hartree (EUMP2 CORRECTED)
O      0.782076     0.427949    -1.398373
C      1.019001     1.827975    -1.654357
H      1.430461     1.905969    -2.666337
H      1.735211     2.218211    -0.921134
C     -0.358443     0.317673    -0.507975
H     -1.138850    -0.250930    -1.033856
H     -0.079755    -0.208208     0.405094
C     -0.345987     2.477834    -1.479828
H     -0.983871     2.261848    -2.348055
H     -0.308897     3.557233    -1.306903
C     -0.861184     1.741252    -0.243321
H     -1.956769     1.750796    -0.164267
O     -0.350165     2.427457     0.902132
P      0.471195     1.743850     2.186862
O     -0.109042     0.389229     2.543972
O      0.654197     2.867244     3.172928
O      1.943648     1.503321     1.408890
C      2.579870     0.223126     1.402388
H      1.903437    -0.537175     1.816176
H      2.810656    -0.026705     0.359225
C      3.859728     0.263459     2.218329
H      4.280105    -0.752128     2.245774
O      4.874033     1.082497     1.603466
C      4.651128     2.443566     2.038274
H      5.638520     2.918613     2.065010
H      4.015341     2.957673     1.310002
C      3.961033     2.368166     3.412011
H      3.023085     2.929031     3.410827
H      4.608195     2.758360     4.206732
C      3.677619     0.866384     3.614044
H      2.673927     0.689899     4.014227
H      4.409345     0.417221     4.296635
