32
Energy = -1142.557666509 Hartree (EUMP2 CORRECTED)
O      1.023499    -0.701808    -0.111661
C      0.114117    -0.657365    -1.238239
H     -0.133526    -1.694468    -1.486295
H      0.604103    -0.178567    -2.094648
C      0.785786     0.470821     0.702205
H      0.497346     0.132426     1.706965
H      1.702321     1.067157     0.762298
C     -1.060497     0.178487    -0.760739
H     -1.705129    -0.408774    -0.092509
H     -1.652393     0.608001    -1.573626
C     -0.331342     1.264376     0.034097
H     -0.976228     1.789952     0.748970
O      0.283973     2.207853    -0.844752
P     -0.772900     3.327754    -1.566751
O     -1.727147     3.823424    -0.506430
O     -1.240972     2.741401    -2.881183
O      0.376236     4.501962    -1.871994
C      1.757653     4.204068    -1.810249
H      2.080459     4.087825    -0.764936
H      1.993440     3.268268    -2.339477
C      2.537411     5.331470    -2.456882
H      2.158761     5.499253    -3.470618
O      2.349905     6.584878    -1.753776
C      3.494380     6.788606    -0.926889
H      3.521340     7.851011    -0.667486
H      3.418938     6.198981     0.001501
C      4.657491     6.310564    -1.786504
H      5.575174     6.118751    -1.218321
H      4.872697     7.061416    -2.555181
C      4.057879     5.045985    -2.411607
H      4.255755     4.174813    -1.773138
H      4.464099     4.823640    -3.403742
