32
Energy = -1142.570838100 Hartree (EUMP2 CORRECTED)
O      1.274625    -0.118085    -0.810845
C      1.691576     1.033229    -1.572765
H      2.236986     0.655504    -2.443311
H      2.351514     1.670486    -0.969229
C      0.085748     0.254410    -0.067719
H     -0.674757    -0.510593    -0.268843
H      0.312320     0.280913     1.002651
C      0.393571     1.756390    -1.893073
H     -0.151304     1.217409    -2.679593
H      0.518036     2.804547    -2.178625
C     -0.340140     1.643823    -0.557177
H     -1.427253     1.745267    -0.634713
O      0.176450     2.645372     0.319595
P     -0.881459     3.682052     1.130811
O     -2.290743     3.181486     0.863412
O     -0.421869     5.097344     0.921726
O     -0.469187     3.298356     2.704000
C     -0.882705     2.041168     3.235935
H      0.013372     1.443906     3.452716
H     -1.521894     1.502611     2.521907
C     -1.669282     2.268988     4.516526
H     -1.980890     1.291692     4.912380
O     -0.838934     2.855713     5.543126
C     -1.032653     4.281694     5.466914
H     -0.697555     4.693496     6.424510
H     -0.438313     4.696039     4.646219
C     -2.528069     4.442910     5.208245
H     -2.766470     5.396821     4.725780
H     -3.075166     4.385997     6.157119
C     -2.857919     3.234323     4.312620
H     -2.935609     3.516601     3.258936
H     -3.801776     2.761189     4.606463
