32
Energy = -1142.570679174 Hartree (EUMP2 CORRECTED)
O      2.216838     1.016559     0.190935
C      1.710253     0.592594    -1.097558
H      2.185121    -0.366833    -1.327334
H      1.984916     1.329880    -1.862630
C      1.157627     1.715764     0.886465
H      0.929161     1.161511     1.807537
H      1.491542     2.727755     1.137523
C      0.201388     0.528069    -0.931780
H     -0.086957    -0.384536    -0.392075
H     -0.353869     0.605101    -1.870673
C     -0.039976     1.758564    -0.054948
H     -0.998946     1.743183     0.479547
O      0.068502     2.955235    -0.826889
P     -1.321273     3.412293    -1.700075
O     -2.445401     3.619299    -0.717933
O     -1.413611     2.505848    -2.911715
O     -0.741149     4.901876    -2.145222
C      0.247956     4.969097    -3.176739
H     -0.221040     5.450183    -4.045771
H      0.584826     3.969656    -3.480267
C      1.428651     5.809457    -2.703408
H      1.997306     6.114330    -3.595344
O      1.001125     7.032226    -2.074943
C      1.099729     6.817558    -0.655427
H      1.097377     7.806836    -0.186869
H      0.241045     6.231172    -0.307727
C      2.405708     6.045856    -0.497670
H      2.482990     5.527109     0.464705
H      3.253681     6.735572    -0.593031
C      2.336249     5.077238    -1.688651
H      1.869524     4.138071    -1.380385
H      3.322087     4.859695    -2.114468
