32
Energy = -1142.573215940 Hartree (EUMP2 CORRECTED)
O      1.208767    -0.320876     0.723037
C      1.951872     0.446523    -0.236994
H      2.739958    -0.205385    -0.627759
H      2.405406     1.326057     0.240810
C     -0.130780     0.245729     0.799169
H     -0.836916    -0.586222     0.690076
H     -0.278051     0.739951     1.762858
C      0.909666     0.868969    -1.260678
H      0.636576     0.011842    -1.889745
H      1.207222     1.711528    -1.891748
C     -0.253564     1.255497    -0.352947
H     -1.231851     1.202927    -0.847586
O     -0.014010     2.599831     0.073144
P     -1.251473     3.339711     0.955199
O     -1.135052     2.904324     2.404079
O     -2.535027     3.245826     0.168178
O     -0.674611     4.888141     0.800957
C      0.408213     5.304735     1.639180
H      1.229189     5.634223     0.989037
H      0.747700     4.474758     2.272087
C     -0.035329     6.457187     2.523721
H      0.795054     6.712733     3.197242
O     -0.300865     7.654299     1.766566
C     -1.673331     7.587877     1.315200
H     -2.035880     8.621882     1.292457
H     -1.703339     7.164214     0.306430
C     -2.430825     6.690230     2.312072
H     -2.906550     5.857416     1.789243
H     -3.205363     7.250002     2.849561
C     -1.339834     6.179125     3.273646
H     -1.454942     5.115856     3.506390
H     -1.344291     6.757877     4.205287
