32
Energy = -1142.573335970 Hartree (EUMP2 CORRECTED)
O      2.130536     0.746092     0.259616
C      1.642093     0.389758    -1.054696
H      2.069964    -0.588095    -1.297653
H      1.978216     1.131472    -1.790606
C      1.113920     1.541409     0.914633
H      0.838751     1.032531     1.848313
H      1.512333     2.536260     1.139515
C      0.128784     0.407154    -0.928482
H     -0.220100    -0.493325    -0.404439
H     -0.399202     0.521253    -1.879258
C     -0.068239     1.641439    -0.045257
H     -1.034135     1.662953     0.476097
O      0.097043     2.840252    -0.805424
P     -1.259618     3.342067    -1.705675
O     -2.403770     3.560897    -0.749303
O     -1.344804     2.466776    -2.939569
O     -0.623446     4.822873    -2.102967
C      0.396302     4.862765    -3.105917
H     -0.056030     5.172858    -4.056631
H      0.856305     3.875519    -3.245985
C      1.450353     5.866028    -2.674031
H      2.192250     5.957586    -3.481210
O      0.883912     7.185454    -2.510726
C      0.676615     7.379490    -1.100165
H      0.585229     8.458787    -0.941063
H     -0.241218     6.870292    -0.784355
C      1.910408     6.751398    -0.462057
H      1.770151     6.519434     0.599822
H      2.763038     7.434693    -0.561561
C      2.102669     5.494362    -1.323595
H      1.577598     4.640365    -0.886204
H      3.158163     5.226994    -1.446837
