32
Energy = -1142.564815186 Hartree (EUMP2 CORRECTED)
O      0.795272    -0.616659     0.507467
C      1.945860     0.227727     0.329637
H      2.812708    -0.431898     0.222276
H      2.082318     0.880488     1.202651
C     -0.366469     0.137815     0.073426
H     -0.944580    -0.514394    -0.591366
H     -0.976433     0.426411     0.934471
C      1.613633     1.051783    -0.905565
H      1.708822     0.429447    -1.805700
H      2.220841     1.955190    -1.012372
C      0.148900     1.398090    -0.638074
H     -0.443764     1.599355    -1.533886
O      0.111246     2.503353     0.264064
P     -0.947690     3.785801    -0.027250
O     -0.848577     4.703508     1.155388
O     -2.213440     3.168015    -0.586445
O     -0.197885     4.608235    -1.294059
C      0.069770     4.001018    -2.545952
H     -0.833203     3.517799    -2.944398
H      0.875228     3.254295    -2.458152
C      0.538917     5.085764    -3.502672
H      0.844698     4.609523    -4.444833
O     -0.532616     5.984754    -3.851033
C     -0.444469     7.103305    -2.948831
H     -1.020455     7.916763    -3.400697
H     -0.866369     6.833153    -1.975523
C      1.053507     7.377703    -2.852769
H      1.323126     7.925276    -1.943217
H      1.377657     7.962485    -3.721909
C      1.658093     5.962693    -2.891752
H      1.891646     5.614144    -1.882136
H      2.571579     5.925096    -3.496009
