32
Energy = -1142.554483219 Hartree (EUMP2 CORRECTED)
O      0.476340    -0.948578    -0.064503
C     -0.444364    -0.760103    -1.165987
H     -0.852674    -1.746224    -1.409281
H      0.089092    -0.355465    -2.034657
C      0.451204     0.248115     0.749093
H      0.154691    -0.042270     1.766213
H      1.448723     0.699456     0.769804
C     -1.465327     0.240715    -0.653680
H     -2.170418    -0.246162     0.033793
H     -2.011695     0.756917    -1.447818
C     -0.558526     1.201305     0.119014
H     -1.095923     1.812728     0.853772
O      0.161265     2.050270    -0.777803
P     -0.740029     3.308854    -1.473140
O     -1.603119     3.906243    -0.385058
O     -1.305428     2.833815    -2.792369
O      0.556399     4.318266    -1.790755
C      1.895618     3.964629    -1.465150
H      2.042699     3.908363    -0.379257
H      2.141103     2.985808    -1.896472
C      2.811491     5.035694    -2.038944
H      2.212849     5.684206    -2.698528
O      3.376267     5.837271    -0.979046
C      4.390818     6.623619    -1.607442
H      3.942050     7.536295    -2.028949
H      5.104705     6.911072    -0.830295
C      4.999417     5.741950    -2.726238
H      6.031212     5.451997    -2.502292
H      5.007020     6.276716    -3.682395
C      4.054052     4.528650    -2.768075
H      4.472820     3.686022    -2.205162
H      3.827471     4.183424    -3.782391
