32
Energy = -1142.567670075 Hartree (EUMP2 CORRECTED)
O      1.596245     0.513780     0.845521
C      2.190315     1.692375     0.265907
H      3.254802     1.475977     0.131397
H      2.074599     2.546589     0.946469
C      0.189905     0.522392     0.494724
H     -0.051875    -0.476620     0.112699
H     -0.416836     0.739875     1.379900
C      1.412303     1.906696    -1.021453
H      1.724421     1.166866    -1.770953
H      1.482360     2.905670    -1.457516
C     -0.016317     1.618180    -0.558577
H     -0.661083     1.291749    -1.381564
O     -0.583042     2.751550     0.103294
P     -1.448723     3.848326    -0.858450
O     -2.893381     3.787725    -0.442757
O     -0.959925     3.688980    -2.286090
O     -0.773992     5.237872    -0.210390
C     -0.057782     6.136697    -1.052982
H     -0.728201     6.940881    -1.386210
H      0.326789     5.610150    -1.937251
C      1.088710     6.733146    -0.256273
H      1.678099     7.381508    -0.920279
O      0.600708     7.597363     0.798116
C      0.631062     6.831190     2.014495
H      0.593141     7.548199     2.840734
H     -0.233782     6.158676     2.056014
C      1.936642     6.050899     1.917290
H      1.968753     5.184463     2.587569
H      2.778500     6.712181     2.156839
C      1.949530     5.652750     0.434230
H      1.473382     4.677893     0.305904
H      2.962452     5.610921     0.017753
