32
Energy = -1142.556042086 Hartree (EUMP2 CORRECTED)
O      1.016880    -0.180466     1.108293
C      2.119581     0.663697     0.737146
H      3.026122     0.052925     0.796623
H      2.200792     1.515135     1.426331
C     -0.176404     0.348723     0.470537
H     -0.665339    -0.486470    -0.045315
H     -0.854798     0.772552     1.215523
C      1.768903     1.144105    -0.663902
H      1.919739     0.331480    -1.387180
H      2.326776     2.030336    -0.979571
C      0.281741     1.448200    -0.499232
H     -0.294057     1.396722    -1.425811
O      0.163825     2.726136     0.129074
P     -1.122345     3.734365    -0.296312
O     -0.856552     5.057442     0.366772
O     -2.386262     2.916453    -0.147962
O     -0.907991     3.987293    -1.951557
C     -0.119591     3.332158    -2.916344
H     -0.646976     2.460804    -3.334620
H      0.845380     3.005029    -2.499741
C      0.168704     4.326563    -4.031953
H      0.835474     3.848489    -4.764241
O     -1.034394     4.659446    -4.755802
C     -1.524164     5.896887    -4.203735
H     -2.210201     6.320229    -4.944071
H     -2.050043     5.703490    -3.262940
C     -0.261059     6.719605    -3.976541
H     -0.406026     7.524187    -3.247782
H      0.067903     7.159005    -4.926195
C      0.737082     5.657078    -3.487918
H      0.757275     5.629974    -2.394455
H      1.752052     5.842349    -3.857260
