32
Energy = -1142.569322557 Hartree (EUMP2 CORRECTED)
O      1.519955     0.148840     0.106555
C      1.744601     1.393853    -0.594722
H      2.583971     1.224983    -1.276345
H      1.997748     2.189696     0.116557
C      0.120507     0.094137     0.466765
H     -0.281429    -0.854613     0.086865
H      0.012641     0.134415     1.555835
C      0.421785     1.693527    -1.277719
H      0.287006     1.040849    -2.151624
H      0.305306     2.743430    -1.560463
C     -0.564650     1.302683    -0.174008
H     -1.561546     1.060515    -0.561764
O     -0.665173     2.310004     0.832546
P     -1.366143     3.804440     0.465616
O     -0.342872     4.635787    -0.272198
O     -2.128200     4.244328     1.687802
O     -2.445442     3.288189    -0.723925
C     -3.832453     3.193063    -0.404414
H     -4.169499     4.085639     0.133276
H     -4.020435     2.315031     0.237220
C     -4.598112     3.036024    -1.705640
H     -5.646735     2.812156    -1.466354
O     -4.627284     4.247197    -2.478216
C     -3.408459     4.295704    -3.254947
H     -3.657279     4.836440    -4.174431
H     -2.639618     4.838691    -2.698154
C     -2.984569     2.833033    -3.496687
H     -1.960801     2.678696    -3.149811
H     -3.041066     2.565070    -4.558320
C     -3.976706     2.005887    -2.655679
H     -3.486211     1.189714    -2.115007
H     -4.762701     1.578690    -3.289919
