32
Energy = -1142.571987156 Hartree (EUMP2 CORRECTED)
O      1.212152     0.176796     0.343439
C      1.829413     1.279004    -0.358139
H      2.664328     0.861308    -0.929623
H      2.207235     2.018169     0.360486
C     -0.180431     0.516576     0.551272
H     -0.783129    -0.318023     0.170860
H     -0.372367     0.660559     1.620026
C      0.711533     1.868435    -1.199904
H      0.505761     1.216902    -2.060664
H      0.875166     2.895001    -1.538182
C     -0.454855     1.814660    -0.211540
H     -1.438281     1.796253    -0.691419
O     -0.375016     2.887218     0.735689
P     -1.017099     4.383092     0.312706
O     -0.456121     4.796948    -1.033981
O     -0.980875     5.210336     1.565168
O     -2.623301     3.924876     0.053957
C     -3.134818     3.813590    -1.269572
H     -2.365379     3.472354    -1.970447
H     -3.492825     4.795282    -1.622217
C     -4.296492     2.837420    -1.230566
H     -4.745641     2.778416    -2.232329
O     -3.825113     1.500354    -0.931147
C     -4.091556     1.255162     0.460944
H     -4.072260     0.169631     0.600790
H     -3.321207     1.731336     1.080239
C     -5.456291     1.893967     0.685363
H     -5.669526     2.085782     1.742854
H     -6.238698     1.239096     0.282933
C     -5.337705     3.182387    -0.141666
H     -4.957629     3.998918     0.478901
H     -6.294143     3.489775    -0.579341
