32
Energy = -1142.559490734 Hartree (EUMP2 CORRECTED)
O      1.415178    -0.424595    -0.629033
C      1.349925     0.740100    -1.466545
H      1.766253     0.461364    -2.440062
H      1.944135     1.555525    -1.035179
C      0.363839    -0.314356     0.368163
H     -0.241204    -1.228108     0.298646
H      0.812926    -0.213637     1.356227
C     -0.126444     1.099505    -1.487169
H     -0.674310     0.387204    -2.119135
H     -0.341392     2.123059    -1.807165
C     -0.493332     0.902413    -0.014045
H     -1.559317     0.672422     0.118401
O     -0.276208     2.131966     0.673535
P      0.774315     2.596627     1.893022
O      1.758924     1.486217     2.201990
O     -0.059708     3.296478     2.933632
O      1.585420     3.809416     1.067655
C      2.933813     3.615843     0.639306
H      2.991855     3.881896    -0.425410
H      3.235262     2.569625     0.781513
C      3.871136     4.517369     1.425844
H      4.902036     4.294094     1.115425
O      3.669738     5.911168     1.122845
C      2.615527     6.394839     1.988697
H      2.848040     7.446957     2.189500
H      1.656256     6.321987     1.466771
C      2.623711     5.507135     3.246875
H      1.641381     5.055248     3.404698
H      2.896226     6.081280     4.140541
C      3.676226     4.422574     2.940923
H      3.350558     3.424158     3.249572
H      4.627484     4.652368     3.436376
