32
Energy = -1142.572222808 Hartree (EUMP2 CORRECTED)
O      0.937378    -0.419136     0.479963
C      1.648864     0.247327    -0.582346
H      2.279374    -0.505020    -1.067791
H      2.279655     1.046005    -0.170510
C     -0.351667     0.231320     0.643476
H     -1.129026    -0.531591     0.503446
H     -0.432291     0.663359     1.644141
C      0.558468     0.828160    -1.469409
H      0.102745     0.035698    -2.077767
H      0.889046     1.646911    -2.114173
C     -0.427232     1.328475    -0.417628
H     -1.440799     1.469216    -0.811532
O      0.094676     2.553260     0.104052
P     -1.080716     3.704004     0.493218
O     -1.873294     3.156572     1.666798
O     -1.728082     4.215715    -0.767926
O     -0.013230     4.859478     1.020234
C      0.693899     4.619287     2.241166
H      1.764218     4.560478     2.006060
H      0.368328     3.676713     2.700861
C      0.439348     5.762419     3.208533
H      0.997900     5.562973     4.134319
O      0.969923     7.006676     2.696297
C     -0.120621     7.684883     2.044335
H      0.169153     8.737799     1.964366
H     -0.283198     7.260223     1.048054
C     -1.315415     7.434272     2.959281
H     -2.272163     7.531743     2.434861
H     -1.298959     8.150243     3.790051
C     -1.065260     6.001784     3.464040
H     -1.660565     5.265849     2.916087
H     -1.303126     5.901047     4.529004
