32
Energy = -1142.569452968 Hartree (EUMP2 CORRECTED)
O      1.437856     0.116864     0.549648
C      1.931389     1.099478    -0.383138
H      2.780407     0.648059    -0.905994
H      2.273253     1.992424     0.159218
C      0.020749     0.360783     0.739289
H     -0.499207    -0.586944     0.551603
H     -0.164241     0.690264     1.766528
C      0.736300     1.410277    -1.266843
H      0.557219     0.555971    -1.935060
H      0.823820     2.307844    -1.878619
C     -0.398230     1.457761    -0.246166
H     -1.375209     1.257153    -0.701581
O     -0.493554     2.679478     0.509600
P     -1.428498     3.931018    -0.130791
O     -1.481375     4.959858     0.969437
O     -2.613735     3.337496    -0.852728
O     -0.449030     4.535992    -1.367354
C      0.934904     4.751798    -1.111578
H      1.409735     3.866449    -0.681458
H      1.060937     5.580482    -0.393518
C      1.588766     5.128156    -2.428499
H      2.650487     5.347218    -2.248572
O      1.570032     4.013557    -3.352331
C      0.451323     4.217276    -4.235676
H      0.628666     3.593282    -5.117278
H     -0.477405     3.918078    -3.736032
C      0.477143     5.715897    -4.512214
H     -0.482824     6.096605    -4.878049
H      1.249383     5.938528    -5.258426
C      0.859176     6.291163    -3.139259
H     -0.035980     6.560620    -2.572023
H      1.499213     7.176494    -3.223386
