32
Energy = -1142.569639249 Hartree (EUMP2 CORRECTED)
O      0.787184     0.641982    -2.092747
C      1.919905     1.534886    -2.038244
H      2.332367     1.584590    -3.050503
H      2.666383     1.143667    -1.337658
C      0.101564     0.874827    -0.849169
H     -0.910359     0.474062    -0.963003
H      0.614122     0.370387    -0.026400
C      1.340615     2.850126    -1.521246
H      2.046764     3.413883    -0.906369
H      1.007799     3.481706    -2.353717
C      0.130269     2.408680    -0.659558
H     -0.793670     2.846965    -1.052780
O      0.186860     2.882542     0.688969
P      1.225363     2.217751     1.831368
O      1.392343     3.286870     2.884140
O      2.355218     1.495707     1.138644
O      0.229194     1.020467     2.451980
C     -0.924501     1.428401     3.191033
H     -1.818127     1.105502     2.640154
H     -0.944515     2.519692     3.312206
C     -0.900959     0.769711     4.559315
H     -1.805927     1.069667     5.107422
O     -0.977903    -0.670372     4.439297
C      0.370610    -1.167724     4.524537
H      0.297432    -2.230328     4.778269
H      0.876973    -1.041474     3.561419
C      1.013186    -0.307874     5.607268
H      2.106852    -0.297592     5.544053
H      0.724147    -0.685683     6.595772
C      0.394274     1.075104     5.343766
H      1.053530     1.707368     4.742037
H      0.174904     1.608794     6.275437
