32
Energy = -1142.567843801 Hartree (EUMP2 CORRECTED)
O      1.667816    -0.229549     0.593873
C      2.318394     0.863000    -0.071628
H      3.295513     0.500474    -0.405747
H      2.445929     1.709833     0.617089
C      0.249510     0.085208     0.615788
H     -0.286070    -0.829666     0.339855
H     -0.038877     0.389397     1.623197
C      1.348958     1.215122    -1.189295
H      1.371206     0.429074    -1.955530
H      1.515086     2.191593    -1.653914
C      0.021902     1.196953    -0.432592
H     -0.835786     0.948833    -1.072377
O     -0.184925     2.519532     0.072367
P     -0.905084     2.783325     1.571419
O      0.160530     2.638030     2.640946
O     -2.227635     2.058911     1.625533
O     -1.216668     4.396398     1.329985
C     -0.145205     5.332958     1.477375
H     -0.048008     5.884619     0.533069
H      0.794628     4.811668     1.700517
C     -0.456393     6.302627     2.604541
H      0.408864     6.968364     2.734024
O     -1.564968     7.167499     2.288481
C     -2.777805     6.477030     2.668315
H     -3.480621     7.253485     2.991423
H     -3.183502     5.951467     1.798120
C     -2.399390     5.484762     3.784278
H     -2.683316     4.468309     3.502538
H     -2.895377     5.733958     4.729824
C     -0.867799     5.609309     3.905029
H     -0.379011     4.636528     4.018018
H     -0.598285     6.252838     4.751350
