32
Energy = -1142.566527986 Hartree (EUMP2 CORRECTED)
O      1.888959     0.028177     0.502950
C      1.930627     0.455058    -0.883384
H      1.437088    -0.316898    -1.490474
H      2.980200     0.519712    -1.191898
C      1.036727     0.938152     1.225159
H      0.467449     0.358386     1.957629
H      1.629954     1.702933     1.744292
C      1.197883     1.789849    -0.952144
H      0.751687     1.984385    -1.929969
H      1.852155     2.633547    -0.717026
C      0.171816     1.623717     0.172771
H     -0.634010     0.947922    -0.159432
O     -0.412683     2.773259     0.761978
P     -0.808156     4.161280    -0.088650
O      0.233948     4.463968    -1.144365
O     -1.265226     5.142200     0.956434
O     -2.187806     3.584180    -0.867255
C     -2.239359     3.512103    -2.292170
H     -2.614794     2.515156    -2.562393
H     -1.237005     3.659428    -2.716259
C     -3.184141     4.561026    -2.855760
H     -3.129842     4.515167    -3.953068
O     -4.559655     4.288779    -2.526634
C     -4.814646     4.872370    -1.227043
H     -5.870623     5.165257    -1.229080
H     -4.642529     4.119241    -0.451623
C     -3.842438     6.055332    -1.068614
H     -3.251623     5.952814    -0.155022
H     -4.377756     7.011803    -1.039123
C     -2.931067     5.968463    -2.309542
H     -1.876778     6.132024    -2.064545
H     -3.231806     6.702758    -3.066689
