32
Energy = -1142.567969895 Hartree (EUMP2 CORRECTED)
O      1.581800    -0.052490    -0.668324
C      1.497480     0.895647    -1.755905
H      1.881799     0.389240    -2.647176
H      2.116350     1.775194    -1.537357
C      0.512603     0.241918     0.263778
H     -0.079200    -0.674211     0.389759
H      0.935355     0.546920     1.226474
C      0.027912     1.273280    -1.824069
H     -0.551974     0.460677    -2.282827
H     -0.169341     2.211733    -2.347604
C     -0.315443     1.375511    -0.337191
H     -1.388509     1.283960    -0.137633
O      0.173799     2.598098     0.228256
P     -0.728906     3.992676    -0.016756
O     -0.261074     4.998017     1.008060
O     -2.166578     3.590681    -0.245618
O     -0.049992     4.420049    -1.502361
C      0.324630     5.778642    -1.730132
H     -0.198327     6.448541    -1.039099
H      0.012295     6.013932    -2.754892
C      1.844482     6.053559    -1.571704
H      2.270781     6.271055    -2.559571
O      2.056938     7.268481    -0.813604
C      2.354717     6.848770     0.535391
H      2.801305     7.711757     1.039311
H      1.437499     6.529275     1.043638
C      3.297579     5.670314     0.335035
H      3.367742     5.028446     1.219934
H      4.300293     6.036522     0.080526
C      2.648128     4.945030    -0.856469
H      1.987841     4.148179    -0.513447
H      3.392587     4.501080    -1.527501
