32
Energy = -1142.573825160 Hartree (EUMP2 CORRECTED)
O      0.593292    -0.235266    -0.010868
C      1.599487     0.781098    -0.225019
H      2.448818     0.286245    -0.706154
H      1.914662     1.204952     0.737158
C     -0.699668     0.415508    -0.024383
H     -1.324804    -0.108343    -0.759608
H     -1.158894     0.347984     0.967852
C      0.904585     1.829208    -1.075882
H      0.808629     1.473313    -2.110821
H      1.364336     2.819989    -1.071126
C     -0.467062     1.879523    -0.405140
H     -1.249035     2.273375    -1.065996
O     -0.401989     2.638880     0.806049
P     -0.728784     4.294112     0.667464
O     -0.209806     4.774726    -0.664986
O     -0.411006     4.883260     2.015906
O     -2.398794     4.189179     0.487636
C     -3.140954     3.894982     1.672573
H     -3.223115     4.792704     2.296474
H     -2.639994     3.108447     2.257943
C     -4.517790     3.406576     1.261508
H     -5.076538     3.137887     2.168527
O     -5.289066     4.450747     0.627792
C     -5.089804     4.310456    -0.789939
H     -5.902608     4.858427    -1.277133
H     -4.121058     4.733813    -1.075061
C     -5.131348     2.801554    -1.020819
H     -4.619503     2.502621    -1.942430
H     -6.173576     2.466039    -1.079623
C     -4.451571     2.244670     0.243333
H     -3.407782     1.986143     0.048575
H     -4.962571     1.352261     0.621454
