32
Energy = -1142.540473878 Hartree (EUMP2 CORRECTED)
O      2.039557     0.355223     0.587176
C      2.241018     1.480814    -0.288402
H      3.184860     1.308695    -0.813720
H      2.299160     2.413217     0.288719
C      0.627083     0.316020     0.891465
H      0.316736    -0.733718     0.836764
H      0.440204     0.711034     1.895927
C      1.005479     1.479128    -1.173764
H      1.072417     0.661708    -1.905066
H      0.835709     2.430364    -1.686606
C     -0.093915     1.206761    -0.137325
H     -0.971230     0.695005    -0.546818
O     -0.454799     2.403879     0.520172
P     -1.583754     3.581268     0.069826
O     -0.789802     4.819339    -0.275020
O     -2.689363     3.541456     1.091944
O     -2.260215     3.070176    -1.387792
C     -2.184736     2.013626    -2.312210
H     -2.686765     1.110722    -1.932565
H     -1.146401     1.762530    -2.576444
C     -2.889275     2.471205    -3.582524
H     -2.757187     1.697042    -4.352296
O     -4.311552     2.582267    -3.378827
C     -4.579864     3.962319    -3.058222
H     -5.647390     4.122357    -3.238910
H     -4.338720     4.154677    -2.008113
C     -3.664630     4.740946    -3.998073
H     -3.456059     5.753701    -3.637510
H     -4.127145     4.809428    -4.990180
C     -2.400843     3.863521    -4.043252
H     -1.647853     4.241853    -3.345738
H     -1.966155     3.823410    -5.048447
