32
Energy = -1142.544377011 Hartree (EUMP2 CORRECTED)
O      1.882957     0.415576     0.942138
C      2.342099     1.540369     0.173240
H      3.382678     1.339059    -0.097039
H      2.283587     2.463385     0.766787
C      0.438348     0.461581     0.903196
H      0.090235    -0.572287     0.804808
H      0.042751     0.904838     1.823577
C      1.374134     1.596779    -0.998415
H      1.600395     0.785487    -1.703693
H      1.373034     2.557597    -1.520497
C      0.034332     1.354977    -0.289823
H     -0.708664     0.847875    -0.912904
O     -0.465869     2.574500     0.221908
P     -1.765236     3.522662    -0.297704
O     -1.201539     4.914023    -0.466552
O     -2.957388     3.190273     0.561880
O     -2.167846     2.980058    -1.842923
C     -1.554574     2.176500    -2.825600
H     -1.928991     1.142957    -2.768781
H     -0.459603     2.168476    -2.735628
C     -1.896578     2.764380    -4.187041
H     -1.341537     2.210257    -4.957728
O     -3.284517     2.606714    -4.519476
C     -4.002627     3.719867    -3.933411
H     -4.845545     3.920216    -4.603962
H     -4.373530     3.431287    -2.945854
C     -3.003783     4.887234    -3.829833
H     -2.949910     5.261280    -2.805319
H     -3.282674     5.713839    -4.493836
C     -1.649494     4.275536    -4.239500
H     -0.850756     4.586172    -3.558263
H     -1.380021     4.563553    -5.262792
