32
Energy = -1142.566561280 Hartree (EUMP2 CORRECTED)
O      1.225156     0.602495     1.269279
C      1.807669     0.938831    -0.009675
H      2.506317     0.134946    -0.263007
H      2.359449     1.884677     0.071965
C     -0.130119     1.113625     1.297142
H     -0.803855     0.264865     1.475019
H     -0.231085     1.843375     2.106398
C      0.627473     1.074398    -0.956367
H      0.257772     0.081053    -1.245685
H      0.808747     1.669706    -1.854213
C     -0.392381     1.769395    -0.056664
H     -1.426055     1.629209    -0.394758
O     -0.090068     3.160842     0.075281
P     -0.784914     4.196774    -1.079133
O     -2.009723     4.843273    -0.478867
O     -0.800130     3.450421    -2.395277
O      0.415916     5.352535    -1.082290
C      1.723690     5.212312    -0.543155
H      2.434636     5.534784    -1.315537
H      1.931893     4.171060    -0.268762
C      1.881376     6.106576     0.678141
H      2.911876     6.003806     1.050347
O      1.735223     7.496090     0.303139
C      0.388913     7.879117     0.647884
H      0.373888     8.973349     0.681039
H     -0.313049     7.508459    -0.107185
C      0.154384     7.204024     1.992413
H     -0.908666     7.106664     2.236756
H      0.652698     7.776431     2.785033
C      0.831248     5.841567     1.780685
H      0.101793     5.102007     1.445406
H      1.302139     5.461734     2.694808
