32
Energy = -1142.566791114 Hartree (EUMP2 CORRECTED)
O      1.750157     0.326026    -0.086873
C      1.949752     1.433146    -0.991198
H      2.758744     1.145923    -1.671143
H      2.250436     2.325804    -0.426434
C      0.352734     0.311699     0.301061
H     -0.045697    -0.681566     0.056709
H      0.267257     0.492958     1.377231
C      0.600890     1.637484    -1.659523
H      0.435160     0.860248    -2.417951
H      0.458869     2.622653    -2.110369
C     -0.351037     1.418736    -0.481698
H     -1.359670     1.142223    -0.807156
O     -0.419503     2.564264     0.374198
P     -1.339660     3.881892    -0.172011
O     -1.703921     4.649291     1.072905
O     -2.290103     3.392005    -1.234731
O     -0.130401     4.729912    -0.983376
C      0.970504     5.135580    -0.176785
H      0.698464     6.006244     0.438275
H      1.264264     4.318404     0.498393
C      2.146723     5.482341    -1.066024
H      2.206156     4.750033    -1.879767
O      1.986186     6.772978    -1.711940
C      2.876649     7.691645    -1.076026
H      3.043436     8.517491    -1.774113
H      2.429595     8.092590    -0.151292
C      4.112549     6.858075    -0.762528
H      4.779394     7.322770    -0.026956
H      4.677329     6.680157    -1.685013
C      3.460778     5.566700    -0.261001
H      3.237128     5.650380     0.811017
H      4.083248     4.676952    -0.399563
