32
Energy = -1142.560180388 Hartree (EUMP2 CORRECTED)
O      2.241069     1.298354     0.213998
C      1.705775     0.707948    -0.997166
H      2.142350    -0.292139    -1.092965
H      2.009071     1.317671    -1.857520
C      1.176022     2.004765     0.891230
H      0.928218     1.466294     1.817960
H      1.516649     3.015478     1.132385
C      0.194431     0.717902    -0.830097
H     -0.133294    -0.131044    -0.214118
H     -0.364747     0.737447    -1.769331
C     -0.005014     2.026836    -0.065469
H     -0.967768     2.090182     0.459413
O      0.165013     3.147527    -0.934280
P     -1.245639     3.642679    -1.760119
O     -2.192649     4.274186    -0.772191
O     -1.633556     2.497703    -2.674907
O     -0.511727     4.857299    -2.619671
C      0.744231     4.598485    -3.242606
H      1.011496     3.537267    -3.186600
H      0.613347     4.858243    -4.302127
C      1.874858     5.478991    -2.647423
H      2.433612     5.904493    -3.492958
O      1.389952     6.608443    -1.914930
C      1.422947     6.228838    -0.527924
H      1.334451     7.152975     0.051505
H      0.585619     5.560375    -0.299357
C      2.769309     5.522595    -0.391787
H      2.836360     4.885521     0.496843
H      3.570504     6.270493    -0.344984
C      2.838679     4.716735    -1.702357
H      2.486108     3.697165    -1.530793
H      3.854545     4.672455    -2.111016
