32
Energy = -1142.569533671 Hartree (EUMP2 CORRECTED)
O      2.195408     0.501360    -0.569345
C      2.279834     1.883156    -0.984462
H      3.071332     1.937744    -1.738139
H      2.540205     2.518240    -0.127868
C      0.841669     0.261949    -0.117542
H      0.469344    -0.622089    -0.651191
H      0.834564     0.076594     0.961480
C      0.888234     2.209003    -1.496684
H      0.732179     1.741784    -2.479049
H      0.641148     3.272056    -1.548186
C      0.025226     1.517082    -0.440781
H     -0.974414     1.266457    -0.808347
O     -0.038424     2.297911     0.753435
P     -1.156365     3.549344     0.905236
O     -1.271875     4.220432    -0.452608
O     -0.846211     4.239127     2.200429
O     -2.597876     2.723411     1.156067
C     -3.268034     2.059249     0.090885
H     -3.134410     0.973099     0.195266
H     -2.881946     2.397575    -0.881466
C     -4.747747     2.399714     0.162877
H     -5.264890     1.899456    -0.668443
O     -5.349818     1.876369     1.367115
C     -5.328024     2.941685     2.337806
H     -6.065101     2.680947     3.104154
H     -4.329933     3.022923     2.780305
C     -5.681672     4.186408     1.529629
H     -5.334682     5.108392     2.008257
H     -6.769375     4.246837     1.402428
C     -4.987097     3.926158     0.181060
H     -4.030938     4.453057     0.115323
H     -5.609170     4.239854    -0.664710
