32
Energy = -1142.569008198 Hartree (EUMP2 CORRECTED)
O      0.510190    -0.402829     0.188066
C      1.689182     0.408650     0.030491
H      2.505176    -0.267093    -0.242991
H      1.931247     0.919491     0.972682
C     -0.631216     0.470458     0.009169
H     -1.336437    -0.054171    -0.645392
H     -1.103004     0.680460     0.975023
C      1.304237     1.416317    -1.040688
H      1.298511     0.932643    -2.026716
H      1.941011     2.304002    -1.065579
C     -0.117820     1.781901    -0.603391
H     -0.764306     2.129674    -1.416864
O     -0.058571     2.767511     0.428045
P     -0.463278     4.355415     0.053630
O     -0.403077     5.117252     1.344121
O     -1.646814     4.318380    -0.897504
O      0.875526     4.840923    -0.852581
C      0.887751     4.663699    -2.268168
H      0.004704     4.104628    -2.599363
H      1.793962     4.111506    -2.548271
C      0.861766     6.021532    -2.972391
H      1.869558     6.457528    -2.981603
O      0.502334     5.828868    -4.368152
C     -0.837286     6.327350    -4.527224
H     -0.973262     6.538631    -5.592538
H     -1.569017     5.570528    -4.206921
C     -0.887138     7.542846    -3.614111
H     -1.908419     7.874361    -3.394884
H     -0.338542     8.372677    -4.077519
C     -0.161003     7.003119    -2.375881
H     -0.864296     6.464387    -1.734938
H      0.319852     7.780504    -1.775536
