32
Energy = -1142.571767750 Hartree (EUMP2 CORRECTED)
O      2.127782     0.189250     0.036243
C      2.667878     1.506530     0.179042
H      3.653916     1.514610    -0.294709
H      2.774711     1.757649     1.246669
C      0.737871     0.333881     0.426259
H      0.186780    -0.505346     0.003249
H      0.648084     0.312271     1.516594
C      1.627127     2.398199    -0.488992
H      1.773239     2.382328    -1.575108
H      1.628782     3.435493    -0.140435
C      0.301932     1.717514    -0.110058
H     -0.353353     1.598557    -0.984809
O     -0.373213     2.541788     0.845064
P     -1.808586     1.985343     1.530049
O     -2.143758     2.988839     2.605978
O     -1.759058     0.489753     1.710067
O     -2.827405     2.231121     0.216217
C     -3.101734     3.580327    -0.167771
H     -2.696483     3.742040    -1.176060
H     -2.634771     4.288438     0.530185
C     -4.604083     3.804362    -0.181417
H     -4.801035     4.838450    -0.499486
O     -5.242319     2.964798    -1.172287
C     -5.724968     1.798492    -0.478906
H     -6.482338     1.341405    -1.124202
H     -4.900007     1.099102    -0.305916
C     -6.271151     2.349208     0.833909
H     -6.330595     1.586619     1.618145
H     -7.274734     2.760880     0.670495
C     -5.267412     3.464792     1.171786
H     -4.509386     3.127419     1.884320
H     -5.763323     4.343520     1.599407
