32
Energy = -1142.571048788 Hartree (EUMP2 CORRECTED)
O      1.105313    -0.281339    -0.548406
C      1.589294     0.748737    -1.434891
H      2.124084     0.243483    -2.245390
H      2.274830     1.418855    -0.899557
C     -0.088431     0.221672     0.105037
H     -0.882753    -0.519336    -0.050084
H      0.099696     0.344538     1.175997
C      0.335576     1.494782    -1.862530
H     -0.225323     0.898309    -2.594512
H      0.520092     2.495970    -2.261632
C     -0.421172     1.571475    -0.537410
H     -1.500449     1.719145    -0.641610
O      0.147575     2.627996     0.237335
P     -0.879647     3.794315     0.902388
O     -2.260269     3.165934     0.991073
O     -0.600456     5.132877     0.276235
O     -0.202691     3.840699     2.424385
C     -0.373960     2.710061     3.278620
H      0.609748     2.253364     3.450389
H     -1.047367     1.972042     2.821170
C     -0.972789     3.163765     4.599406
H     -1.101172     2.282592     5.244227
O     -0.068922     4.036919     5.312946
C     -0.440951     5.386168     4.971214
H     -0.013083     6.033060     5.744108
H     -0.034602     5.648474     3.989023
C     -1.966856     5.360925     4.954367
H     -2.389747     6.156456     4.331534
H     -2.349040     5.477952     5.975711
C     -2.284815     3.956607     4.408263
H     -2.556634     3.982747     3.349247
H     -3.109328     3.488203     4.957607
