32
Energy = -1142.570786162 Hartree (EUMP2 CORRECTED)
O      0.798898    -0.057742     0.583527
C      1.642731     1.109644     0.462738
H      2.673801     0.769114     0.600854
H      1.386281     1.841395     1.239677
C     -0.384799     0.166714    -0.220820
H     -0.477847    -0.678213    -0.915518
H     -1.267418     0.217642     0.424629
C      1.331907     1.659064    -0.918780
H      1.804045     1.036135    -1.690941
H      1.609824     2.703414    -1.077043
C     -0.186570     1.490216    -0.958427
H     -0.588625     1.480286    -1.976918
O     -0.819672     2.504947    -0.173671
P     -1.065287     4.002987    -0.875971
O     -2.507579     4.417179    -0.722079
O     -0.342879     4.034087    -2.212114
O     -0.140373     4.824978     0.260822
C     -0.287871     6.245810     0.301112
H     -0.700390     6.521860     1.280042
H     -0.980311     6.599752    -0.475839
C      1.070041     6.900964     0.115574
H      0.939562     7.992481     0.151859
O      1.947196     6.579277     1.223410
C      2.801650     5.510815     0.783733
H      3.664367     5.498296     1.457975
H      2.265046     4.556452     0.840963
C      3.134888     5.876909    -0.657721
H      3.484175     5.020799    -1.246291
H      3.915720     6.647622    -0.667127
C      1.795912     6.435081    -1.165989
H      1.213918     5.656995    -1.670927
H      1.936989     7.266499    -1.866070
