32
Energy = -1142.566253574 Hartree (EUMP2 CORRECTED)
O      1.718227     0.067160    -0.370570
C      1.545437     0.895517    -1.541716
H      1.830758     0.285848    -2.404766
H      2.196582     1.777102    -1.480405
C      0.782745     0.526302     0.635300
H      0.201547    -0.344208     0.965210
H      1.327785     0.953074     1.483567
C      0.083266     1.304799    -1.505658
H     -0.552434     0.460545    -1.805718
H     -0.153490     2.185290    -2.107772
C     -0.100428     1.591283    -0.014538
H     -1.144665     1.546541     0.312827
O      0.452365     2.870050     0.326762
P     -0.527153     4.210181     0.174246
O      0.128636     5.356515     0.907313
O     -1.969864     3.801583     0.384191
O     -0.275302     4.448340    -1.483444
C     -0.698328     5.735343    -1.942392
H     -0.900523     5.638623    -3.015139
H     -1.629411     6.028335    -1.437864
C      0.379518     6.796256    -1.744775
H      1.182575     6.370867    -1.128746
O      0.911840     7.183399    -3.039672
C      1.709745     8.341416    -2.778331
H      2.728986     8.031519    -2.501039
H      1.759921     8.916835    -3.708062
C      1.026955     9.095031    -1.609329
H      0.629815    10.066168    -1.924364
H      1.739579     9.276428    -0.797475
C     -0.082601     8.127083    -1.165497
H     -1.043315     8.400595    -1.620014
H     -0.211309     8.058369    -0.081511
