32
Energy = -1142.565181240 Hartree (EUMP2 CORRECTED)
O      1.251538    -0.415637     0.236774
C      0.293132    -0.564009    -0.836530
H      0.192472    -1.637777    -1.024744
H      0.660997    -0.062782    -1.740527
C      0.901613     0.773859     0.985417
H      0.748383     0.476556     2.031503
H      1.715242     1.503527     0.921579
C     -0.967558     0.112867    -0.328045
H     -1.474321    -0.526008     0.408199
H     -1.663688     0.399915    -1.120929
C     -0.371059     1.341783     0.363843
H     -1.043107     1.795617     1.103056
O      0.027322     2.325750    -0.590849
P     -1.221789     3.234410    -1.288850
O     -2.130401     3.717862    -0.187178
O     -1.713799     2.490785    -2.516046
O     -0.254614     4.500447    -1.772167
C      0.567270     4.256789    -2.909353
H      1.360057     3.532291    -2.665739
H     -0.044074     3.843319    -3.723480
C      1.195718     5.559746    -3.353872
H      0.445349     6.354838    -3.276850
O      2.292371     5.963994    -2.491755
C      3.511030     5.757960    -3.207526
H      4.270087     6.397805    -2.747538
H      3.837804     4.707634    -3.129665
C      3.162864     6.111318    -4.647829
H      3.892857     5.742994    -5.378045
H      3.084111     7.200009    -4.748409
C      1.788822     5.448748    -4.774187
H      1.905978     4.391848    -5.048864
H      1.141755     5.914773    -5.524044
