32
Energy = -1142.570369213 Hartree (EUMP2 CORRECTED)
O      1.978370     0.719915     0.240326
C      2.218223     1.645765    -0.845787
H      3.046274     1.237704    -1.434279
H      2.502625     2.625559    -0.441127
C      0.563611     0.743042     0.547562
H      0.171262    -0.273759     0.409841
H      0.418064     1.058151     1.585516
C      0.895512     1.732470    -1.587015
H      0.746065     0.837350    -2.206788
H      0.760492     2.632355    -2.192265
C     -0.085566     1.732922    -0.415451
H     -1.104151     1.432852    -0.694833
O     -0.092521     3.012413     0.223517
P     -1.206431     4.131497    -0.388408
O     -2.562448     3.868161     0.228128
O     -0.983748     4.239454    -1.879601
O     -0.480159     5.423943     0.369693
C     -1.197847     6.219400     1.314181
H     -2.090423     5.689534     1.664908
H     -1.506009     7.153767     0.817676
C     -0.289479     6.561432     2.487564
H     -0.720854     7.423765     3.014576
O     -0.218900     5.514037     3.467884
C      0.781974     4.570392     3.017357
H      1.227366     4.145168     3.923454
H      0.307103     3.779716     2.430586
C      1.781472     5.368619     2.156723
H      1.849114     4.922665     1.162342
H      2.781158     5.388239     2.606849
C      1.171226     6.782375     2.080959
H      1.262507     7.220627     1.082195
H      1.647439     7.451349     2.808058
