32
Energy = -1142.571057372 Hartree (EUMP2 CORRECTED)
O      0.831962     0.235046     0.996881
C      1.729301     1.360356     0.866718
H      2.741545     0.979369     1.034908
H      1.491278     2.119316     1.623509
C     -0.314465     0.479650     0.146535
H     -0.413084    -0.377472    -0.532199
H     -1.217105     0.575521     0.758450
C      1.475936     1.897663    -0.530661
H      1.943715     1.242067    -1.278053
H      1.792495     2.932434    -0.686822
C     -0.047755     1.780131    -0.609523
H     -0.436139     1.753934    -1.636256
O     -0.676905     2.835047     0.124755
P     -0.847068     4.291657    -0.704085
O     -1.804422     4.090717    -1.855019
O      0.517078     4.932197    -0.904592
O     -1.582338     5.009066     0.605530
C     -1.423988     6.414284     0.801238
H     -2.418727     6.876838     0.769942
H     -0.787734     6.854841     0.021679
C     -0.790337     6.651992     2.162861
H     -0.707551     7.736290     2.327762
O     -1.649561     6.161130     3.217749
C     -1.173602     4.845895     3.564480
H     -1.579054     4.618273     4.555777
H     -1.525889     4.113266     2.830552
C      0.344237     4.981873     3.525050
H      0.848847     4.017541     3.399558
H      0.697154     5.442230     4.456330
C      0.561987     5.922270     2.327708
H      0.800202     5.369135     1.414708
H      1.373924     6.635470     2.510930
