32
Energy = -1142.566608578 Hartree (EUMP2 CORRECTED)
O      1.597843     0.693112     1.398238
C      2.071905     1.248091     0.149710
H      3.013334     0.742518    -0.088635
H      2.240869     2.326170     0.253323
C      0.156362     0.685288     1.362870
H     -0.182767    -0.356230     1.462476
H     -0.233277     1.280747     2.194502
C      0.949441     0.978733    -0.835409
H      0.936177    -0.082354    -1.122862
H      1.004655     1.593030    -1.732083
C     -0.284297     1.285551     0.024791
H     -1.208248     0.840131    -0.366085
O     -0.459903     2.679909     0.252996
P     -0.593363     3.860314    -0.929181
O      0.763168     4.496927    -1.149124
O     -1.842382     4.647711    -0.623614
O     -0.892164     2.852593    -2.252376
C     -0.213709     3.085004    -3.487193
H      0.197361     2.123910    -3.828424
H      0.609173     3.796077    -3.334635
C     -1.166664     3.599187    -4.552475
H     -0.576631     3.821066    -5.453323
O     -2.118778     2.595108    -4.955418
C     -3.239957     2.675467    -4.045275
H     -4.121124     2.373394    -4.622481
H     -3.085368     1.974698    -3.218071
C     -3.298766     4.126044    -3.535103
H     -3.276140     4.164556    -2.443396
H     -4.200517     4.638845    -3.890110
C     -2.025631     4.783432    -4.102890
H     -1.525406     5.404731    -3.353568
H     -2.259869     5.405271    -4.975354
