32
Energy = -1142.566650614 Hartree (EUMP2 CORRECTED)
O      1.773825     0.234867     0.015448
C      2.144960     1.549710    -0.425468
H      2.997629     1.434251    -1.102492
H      2.431800     2.174563     0.431589
C      0.379868     0.299221     0.430313
H     -0.140744    -0.522727    -0.076994
H      0.318177     0.192191     1.514193
C      0.878899     2.080572    -1.079527
H      0.715935     1.571631    -2.038962
H      0.858079     3.164711    -1.223964
C     -0.171606     1.650228    -0.057495
H     -1.169214     1.512727    -0.498100
O     -0.274284     2.718488     0.895228
P     -0.542833     2.540640     2.545442
O     -0.763145     3.945683     3.043439
O      0.403257     1.540108     3.158648
O     -2.030623     1.749219     2.450276
C     -3.108269     2.505244     1.901961
H     -2.786721     3.037980     0.997501
H     -3.462567     3.248043     2.633316
C     -4.219925     1.534215     1.553538
H     -5.083090     2.101738     1.177781
O     -3.814536     0.668348     0.463731
C     -3.442686    -0.593890     1.041436
H     -3.476025    -1.334696     0.236150
H     -2.430330    -0.532376     1.458247
C     -4.477637    -0.809221     2.138380
H     -4.167748    -1.554698     2.879386
H     -5.425561    -1.131992     1.690799
C     -4.599252     0.603216     2.727323
H     -3.883075     0.738193     3.542920
H     -5.605424     0.816566     3.105187
