32
Energy = -1142.573198442 Hartree (EUMP2 CORRECTED)
O      1.075765    -0.269939    -0.177793
C      1.484372     0.614223    -1.241320
H      2.005911     0.001469    -1.983892
H      2.165224     1.382949    -0.853078
C     -0.147135     0.254947     0.402753
H     -0.910822    -0.530925     0.337410
H      0.019127     0.517151     1.450584
C      0.189390     1.242545    -1.732067
H     -0.371630     0.522892    -2.343107
H      0.323472     2.175422    -2.286439
C     -0.528485     1.493246    -0.408124
H     -1.613689     1.596677    -0.507476
O      0.052466     2.664782     0.170482
P     -0.999830     3.673705     1.024508
O     -1.979108     2.761392     1.743966
O     -1.420700     4.838046     0.168313
O      0.120017     4.256712     2.105967
C      0.579696     3.388552     3.144620
H      1.668609     3.288528     3.047743
H      0.111734     2.399110     3.059567
C      0.236387     3.980818     4.500774
H      0.538976     3.263431     5.276773
O      0.981279     5.183075     4.774948
C      0.248312     6.289157     4.199751
H      0.436165     7.149571     4.852028
H      0.632371     6.496188     3.195992
C     -1.232115     5.866506     4.146713
H     -1.612509     5.940581     3.125473
H     -1.853791     6.495238     4.795077
C     -1.230313     4.400312     4.622531
H     -1.885528     3.766400     4.016829
H     -1.532459     4.335490     5.674916
