32
Energy = -1142.571664191 Hartree (EUMP2 CORRECTED)
O      1.305194    -0.020246    -0.191544
C      1.933819     1.190395    -0.625856
H      2.590457     0.940120    -1.464429
H      2.534947     1.618178     0.192686
C      0.260199     0.429668     0.708589
H     -0.479829    -0.369586     0.773987
H      0.669976     0.623617     1.704264
C      0.762509     2.100579    -0.975873
H      0.387969     1.851153    -1.975251
H      0.990395     3.170114    -0.932967
C     -0.281077     1.741943     0.094295
H     -1.270716     1.583607    -0.353764
O     -0.380617     2.836754     1.013500
P     -1.369162     2.677036     2.370551
O     -1.387704     4.043431     3.004801
O     -1.086217     1.377961     3.081867
O     -2.825932     2.410983     1.566345
C     -3.336970     3.486715     0.783569
H     -2.551344     3.904458     0.139923
H     -3.715735     4.289105     1.435518
C     -4.455627     2.924468    -0.072851
H     -4.899875     3.738677    -0.662602
O     -3.927482     1.981636    -1.038290
C     -4.177364     0.662647    -0.523589
H     -4.106728    -0.026741    -1.370852
H     -3.428617     0.408557     0.236404
C     -5.569337     0.769803     0.086549
H     -5.787532    -0.034773     0.797725
H     -6.322392     0.747435    -0.710563
C     -5.512351     2.153227     0.750624
H     -5.171802     2.064744     1.786160
H     -6.482546     2.662544     0.742996
