32
Energy = -1142.567016314 Hartree (EUMP2 CORRECTED)
O      2.269024     0.787576     0.850946
C      2.359835     1.989323     0.058027
H      3.370486     2.015526    -0.360788
H      2.195610     2.874169     0.686930
C      0.870741     0.408481     0.909379
H      0.812998    -0.654976     0.647577
H      0.478147     0.568544     1.918563
C      1.245358     1.847320    -0.966548
H      1.533453     1.118867    -1.736713
H      0.943760     2.789360    -1.434401
C      0.119571     1.296081    -0.087496
H     -0.636137     0.736340    -0.647630
O     -0.489762     2.359243     0.636096
P     -1.923577     3.094859     0.142589
O     -1.569745     4.360348    -0.612959
O     -2.878246     3.045002     1.304866
O     -2.456922     1.964046    -0.984390
C     -2.386935     2.235334    -2.383244
H     -1.880099     1.386978    -2.865464
H     -1.824193     3.160074    -2.567385
C     -3.791965     2.364891    -2.948789
H     -3.717059     2.521356    -4.034913
O     -4.527613     1.132010    -2.779849
C     -5.318009     1.281370    -1.582696
H     -6.108088     0.525115    -1.634456
H     -4.692564     1.121410    -0.698406
C     -5.822006     2.718464    -1.647767
H     -6.102634     3.107709    -0.663616
H     -6.692701     2.775419    -2.312626
C     -4.620838     3.466330    -2.250656
H     -4.027183     3.957292    -1.475591
H     -4.934485     4.235222    -2.965704
