32
Energy = -1142.565678559 Hartree (EUMP2 CORRECTED)
O      0.952520    -0.407468    -0.583952
C      0.106115    -0.007612    -1.687138
H     -0.124822    -0.914758    -2.254711
H      0.640117     0.703388    -2.329480
C      0.676917     0.469923     0.533911
H      0.349485    -0.152757     1.377548
H      1.586980     1.013911     0.807244
C     -1.095026     0.656937    -1.037405
H     -1.770682    -0.099650    -0.615615
H     -1.646813     1.320752    -1.708605
C     -0.414895     1.437713     0.089842
H     -1.099264     1.717159     0.900235
O      0.233683     2.606002    -0.416882
P     -0.791164     3.901577    -0.814685
O     -1.823706     4.060175     0.271503
O     -1.142476     3.742851    -2.282552
O      0.346609     5.107755    -0.644290
C      1.642250     4.890335    -1.217925
H      2.263300     5.714657    -0.852695
H      2.053133     3.940925    -0.857432
C      1.630421     4.943356    -2.745536
H      0.635137     5.252601    -3.090548
O      2.624987     5.916934    -3.171495
C      2.786938     5.711955    -4.579823
H      2.087984     6.361038    -5.128546
H      3.810114     6.008571    -4.832423
C      2.485368     4.217446    -4.852542
H      3.349668     3.690151    -5.271204
H      1.657650     4.114601    -5.562604
C      2.083525     3.683775    -3.470412
H      2.949615     3.264253    -2.943415
H      1.287452     2.934234    -3.496749
