32
Energy = -1142.571259703 Hartree (EUMP2 CORRECTED)
O      1.025235    -0.062330     0.401553
C      1.886627     1.099065     0.424604
H      2.916623     0.729048     0.408771
H      1.714544     1.677636     1.340711
C     -0.202489     0.307313    -0.271169
H     -0.345189    -0.387459    -1.109348
H     -1.044209     0.228006     0.424491
C      1.480813     1.902807    -0.798752
H      1.877997     1.438984    -1.711760
H      1.780348     2.953724    -0.757302
C     -0.040927     1.747076    -0.749915
H     -0.528938     1.944262    -1.711304
O     -0.605007     2.591696     0.258422
P     -0.701572     4.221648    -0.127107
O     -1.025257     4.354046    -1.599936
O      0.455077     4.974594     0.503447
O     -2.055901     4.443183     0.821513
C     -2.419357     5.789113     1.135795
H     -3.389623     6.001278     0.668868
H     -1.673346     6.503928     0.760489
C     -2.529444     5.930244     2.644877
H     -2.841823     6.958313     2.879586
O     -3.577147     5.076795     3.162143
C     -2.939380     3.875396     3.635709
H     -3.646832     3.393962     4.318920
H     -2.714652     3.213472     2.792269
C     -1.663372     4.374219     4.304130
H     -0.899204     3.593660     4.388422
H     -1.896324     4.745512     5.309904
C     -1.231466     5.522513     3.376862
H     -0.480517     5.195511     2.651143
H     -0.814528     6.366096     3.938905
