32
Energy = -1142.571685005 Hartree (EUMP2 CORRECTED)
O      1.134677     0.210631     0.698018
C      1.779029     1.478639     0.445188
H      2.856557     1.309028     0.537345
H      1.455409     2.221285     1.186004
C     -0.119949     0.201759    -0.026773
H     -0.135219    -0.704006    -0.646441
H     -0.956839     0.185080     0.678757
C      1.309711     1.867979    -0.946003
H      1.827667     1.266780    -1.705779
H      1.416222     2.927032    -1.183542
C     -0.164120     1.473796    -0.872948
H     -0.614735     1.324721    -1.859300
O     -0.907993     2.445611    -0.131188
P     -1.386352     3.841165    -0.916489
O     -2.757538     4.233833    -0.432510
O     -1.024565     3.719248    -2.386928
O     -0.238980     4.841504    -0.187460
C     -0.294604     6.210539    -0.599223
H     -0.670828     6.813168     0.237550
H     -0.970600     6.344105    -1.456421
C      1.090716     6.687393    -0.995303
H      1.017969     7.739603    -1.306587
O      1.987839     6.682550     0.141820
C      2.774103     5.484085     0.050483
H      3.659257     5.637517     0.676499
H      2.196029     4.630254     0.422662
C      3.073152     5.355255    -1.439083
H      3.370150     4.341787    -1.731966
H      3.885320     6.042761    -1.705982
C      1.745997     5.799098    -2.075372
H      1.093953     4.948732    -2.300234
H      1.903185     6.356128    -3.005864
