32
Energy = -1142.567944260 Hartree (EUMP2 CORRECTED)
O      0.892940     0.170698     0.702940
C      1.570567     0.889528    -0.353409
H      2.255051     0.182207    -0.832996
H      2.141218     1.726515     0.067620
C     -0.436719     0.720697     0.831254
H     -1.156331    -0.093760     0.665468
H     -0.567051     1.132150     1.837440
C      0.456735     1.393510    -1.250948
H      0.043177     0.561629    -1.838940
H      0.757681     2.215559    -1.902515
C     -0.589570     1.825250    -0.217526
H     -1.603726     1.872910    -0.634658
O     -0.290710     3.055603     0.456716
P      0.036657     4.520892    -0.303698
O      0.850664     4.300904    -1.562446
O      0.401241     5.460666     0.808576
O     -1.533879     4.921299    -0.776261
C     -1.987862     4.611616    -2.088638
H     -1.439478     3.765003    -2.516804
H     -1.836631     5.479526    -2.752202
C     -3.469230     4.285906    -2.006456
H     -3.857671     4.135209    -3.023802
O     -3.677353     3.029658    -1.318786
C     -4.012712     3.345331     0.045776
H     -4.494132     2.456080     0.465306
H     -3.103803     3.586421     0.608888
C     -4.934324     4.552581    -0.081084
H     -5.010266     5.128412     0.847881
H     -5.938596     4.218743    -0.368865
C     -4.274041     5.346647    -1.219839
H     -3.590831     6.098734    -0.815815
H     -5.010754     5.848515    -1.857266
