32
Energy = -1142.572508675 Hartree (EUMP2 CORRECTED)
O      1.264879     0.204774     0.339129
C      1.905534     1.332874    -0.298474
H      2.765201     0.937757    -0.849010
H      2.250021     2.047035     0.460843
C     -0.141173     0.521806     0.484212
H     -0.712748    -0.298043     0.030172
H     -0.393471     0.610406     1.546280
C      0.821039     1.948401    -1.164965
H      0.656058     1.330834    -2.058771
H      0.990471     2.987847    -1.457470
C     -0.385322     1.851652    -0.230345
H     -1.347830     1.864499    -0.753688
O     -0.339267     2.885894     0.762185
P     -1.050805     4.355582     0.368745
O     -0.526746     4.823138    -0.975093
O     -1.045704     5.171912     1.629933
O     -2.617461     3.773832     0.110061
C     -3.228414     3.939838    -1.163177
H     -2.508845     3.758570    -1.969367
H     -3.615719     4.966044    -1.279392
C     -4.377662     2.952385    -1.237627
H     -4.885247     3.065906    -2.206395
O     -3.872883     1.593388    -1.210487
C     -4.096869     1.077813     0.112348
H     -4.064912    -0.013893     0.037536
H     -3.312525     1.433718     0.792365
C     -5.457269     1.643802     0.498284
H     -5.643923     1.612321     1.577624
H     -6.248504     1.080707    -0.011643
C     -5.357231     3.073640    -0.049324
H     -4.929143     3.739680     0.705724
H     -6.327411     3.475493    -0.362512
