32
Energy = -1142.575198608 Hartree (EUMP2 CORRECTED)
O      1.426226     0.118484     0.527714
C      1.858386     1.163088    -0.369525
H      2.732543     0.779943    -0.904845
H      2.141035     2.058903     0.200031
C      0.007029     0.302300     0.761680
H     -0.478532    -0.664442     0.580105
H     -0.164025     0.617454     1.796286
C      0.644979     1.439795    -1.241633
H      0.524052     0.636129    -1.980863
H      0.668284     2.409555    -1.746851
C     -0.477953     1.385841    -0.202972
H     -1.460624     1.167513    -0.633354
O     -0.532316     2.625098     0.511725
P     -1.681823     3.760942     0.032019
O     -1.889272     4.664382     1.220801
O     -2.764082     3.068701    -0.759015
O     -0.755134     4.591647    -1.103214
C      0.361164     5.324787    -0.608530
H      1.069226     4.651273    -0.105988
H      0.030071     6.086090     0.113994
C      1.032443     5.981047    -1.799200
H      1.889747     6.570826    -1.445591
O      1.584525     4.979343    -2.689791
C      0.662287     4.830870    -3.782604
H      1.215868     4.362158    -4.602527
H     -0.179114     4.195979    -3.479998
C      0.202535     6.255443    -4.067027
H     -0.729146     6.297035    -4.642395
H      0.982664     6.789322    -4.623273
C      0.052612     6.822323    -2.648014
H     -0.966556     6.669856    -2.281599
H      0.286900     7.891425    -2.596286
