32
Energy = -1142.566929571 Hartree (EUMP2 CORRECTED)
O      0.438958    -0.446339     0.201073
C      1.627523     0.365177     0.161790
H      2.466313    -0.309768    -0.033623
H      1.776992     0.872765     1.124729
C     -0.680306     0.426386    -0.088362
H     -1.314475    -0.095471    -0.813906
H     -1.248085     0.630691     0.825517
C      1.348450     1.376966    -0.938135
H      1.439105     0.896783    -1.921791
H      1.983556     2.265515    -0.896956
C     -0.109180     1.740931    -0.639394
H     -0.674510     2.093738    -1.509124
O     -0.144753     2.720799     0.398626
P     -0.549812     4.299793    -0.007135
O     -0.556413     5.080781     1.274258
O     -1.687383     4.240544    -1.009858
O      0.822870     4.796638    -0.850678
C      0.920796     4.617124    -2.263623
H      0.000736     4.178472    -2.665610
H      1.761165     3.935200    -2.457819
C      1.175675     5.956795    -2.991857
H      2.043469     5.861894    -3.655732
O      0.078739     6.296857    -3.864091
C     -0.949923     6.842876    -2.999296
H     -1.539759     7.522581    -3.622197
H     -1.583588     6.032057    -2.623669
C     -0.211031     7.539314    -1.838036
H     -0.563318     7.162023    -0.874557
H     -0.355250     8.625681    -1.856163
C      1.266782     7.165885    -2.060604
H      1.783052     6.941384    -1.124394
H      1.796904     7.967350    -2.589502
