32
Energy = -1142.572118973 Hartree (EUMP2 CORRECTED)
O      0.596940    -0.521099     0.640106
C      0.866256    -0.333836    -0.775422
H      0.146152    -0.940198    -1.342710
H      1.875678    -0.707148    -0.980673
C      0.069966     0.713647     1.166693
H     -0.731571     0.466190     1.869651
H      0.854564     1.276108     1.691417
C      0.697896     1.153253    -1.051211
H      0.407887     1.376960    -2.080890
H      1.612332     1.708515    -0.818348
C     -0.392707     1.519416    -0.041206
H     -1.366798     1.162778    -0.406772
O     -0.506134     2.884009     0.344310
P     -0.625266     4.052234    -0.866673
O     -0.918351     5.344734    -0.149745
O     -1.400600     3.474493    -2.024866
O      0.973775     4.077974    -1.388596
C      1.940256     4.619079    -0.491747
H      2.093285     3.938204     0.358198
H      1.601001     5.591152    -0.104627
C      3.235577     4.779510    -1.262798
H      3.997978     5.204345    -0.594909
O      3.748823     3.487988    -1.674611
C      3.395861     3.315231    -3.057714
H      4.057594     2.540823    -3.458909
H      2.348851     3.000750    -3.140762
C      3.605609     4.697704    -3.663143
H      3.083782     4.829721    -4.617621
H      4.676953     4.871000    -3.821991
C      3.058843     5.608638    -2.554568
H      1.995387     5.808928    -2.713507
H      3.589902     6.565246    -2.497254
