32
Energy = -1142.568214903 Hartree (EUMP2 CORRECTED)
O      0.457200     0.112420     1.394198
C      1.505956     0.853826     0.731153
H      2.424791     0.268750     0.839743
H      1.634077     1.833051     1.210745
C     -0.790361     0.405289     0.718393
H     -1.225066    -0.549890     0.395530
H     -1.473665     0.910963     1.408118
C      1.019887     1.015074    -0.698430
H      1.128193     0.068448    -1.245187
H      1.509312     1.821399    -1.249973
C     -0.463617     1.309803    -0.467719
H     -1.081856     1.109689    -1.349652
O     -0.669930     2.660592    -0.035663
P     -0.639345     3.862296    -1.208085
O     -1.256294     5.090240    -0.581851
O     -1.065519     3.251712    -2.523586
O      1.022967     4.103056    -1.333231
C      1.603707     5.267683    -0.750293
H      0.945500     5.707746     0.007677
H      2.531316     4.926156    -0.269443
C      1.949440     6.312020    -1.824841
H      2.841089     6.856832    -1.478022
O      2.319736     5.722780    -3.077286
C      1.158434     5.810447    -3.927244
H      1.513473     5.675013    -4.953845
H      0.442922     5.019359    -3.674190
C      0.603552     7.201583    -3.632849
H     -0.443401     7.311662    -3.936551
H      1.204018     7.955876    -4.156691
C      0.791920     7.299337    -2.108627
H     -0.114779     6.969924    -1.590615
H      1.037663     8.314416    -1.777353
