32
Energy = -1142.570278022 Hartree (EUMP2 CORRECTED)
O      1.327455    -0.103604    -0.034880
C      2.103624     1.101704     0.151598
H      3.155382     0.820411     0.039383
H      1.933233     1.508839     1.156088
C      0.038773     0.277925    -0.574834
H     -0.111903    -0.288082    -1.503314
H     -0.751220     0.032720     0.142367
C      1.583070     2.056800    -0.908776
H      1.966044     1.775419    -1.899011
H      1.809326     3.108968    -0.715846
C      0.080300     1.783102    -0.827535
H     -0.462498     2.091379    -1.727450
O     -0.483112     2.419628     0.323203
P     -0.786740     4.061626     0.202553
O     -0.904330     4.438471    -1.260073
O      0.118545     4.816550     1.154276
O     -2.304353     3.942891     0.896988
C     -3.030348     5.167344     1.029518
H     -3.907769     5.121581     0.371943
H     -2.418439     6.033922     0.739190
C     -3.471811     5.329893     2.473802
H     -4.049183     6.262001     2.561280
O     -4.383404     4.270287     2.850351
C     -3.606244     3.281677     3.550986
H     -4.314559     2.673140     4.122854
H     -3.061923     2.657272     2.833680
C     -2.650711     4.104351     4.406994
H     -1.769840     3.535237     4.724189
H     -3.176092     4.463844     5.300613
C     -2.291564     5.267667     3.468464
H     -1.357715     5.072704     2.931314
H     -2.182164     6.213394     4.011606
