32
Energy = -1142.570931785 Hartree (EUMP2 CORRECTED)
O      0.721765    -0.376881    -0.298430
C      1.753528     0.598193    -0.027439
H      2.711295     0.074670    -0.107530
H      1.635002     0.997356     0.988511
C     -0.416967     0.328222    -0.848837
H     -0.681662    -0.160547    -1.795137
H     -1.260664     0.274765    -0.153399
C      1.532452     1.685350    -1.063990
H      1.883307     1.344608    -2.047837
H      1.973304     2.657032    -0.828603
C      0.007215     1.783392    -1.053695
H     -0.408312     2.209369    -1.975980
O     -0.438063     2.524531     0.088711
P     -0.589763     4.177679    -0.150386
O     -1.914215     4.506949    -0.804359
O      0.720423     4.698647    -0.712198
O     -0.672501     4.494787     1.485560
C     -1.429300     5.629814     1.917140
H     -2.145333     5.282525     2.673426
H     -1.989925     6.059997     1.076576
C     -0.526444     6.678433     2.544470
H     -1.146361     7.551350     2.794753
O      0.029321     6.232172     3.797394
C      1.238738     5.498701     3.495858
H      1.911213     5.660859     4.345808
H      1.004149     4.432581     3.411399
C      1.777321     6.054884     2.165196
H      1.892161     5.264745     1.420032
H      2.743374     6.555786     2.300428
C      0.694086     7.045241     1.697344
H      0.509832     6.949238     0.623131
H      0.984314     8.079102     1.920932
