32
Energy = -1142.565051032 Hartree (EUMP2 CORRECTED)
O      0.688725     0.482699    -1.608971
C      1.325430     1.774303    -1.711775
H      1.725138     1.845032    -2.728762
H      2.137524     1.861519    -0.980701
C     -0.199873     0.556357    -0.471983
H     -1.053863    -0.089260    -0.704725
H      0.304728     0.193252     0.425425
C      0.215769     2.765089    -1.400928
H      0.580865     3.727460    -1.033211
H     -0.408728     2.909120    -2.291769
C     -0.605748     2.040303    -0.314887
H     -1.676536     2.155506    -0.519753
O     -0.486209     2.561348     1.012863
P      0.958228     2.968725     1.773298
O      0.667123     2.954083     3.251208
O      1.586301     4.119155     1.020572
O      1.920841     1.632692     1.384360
C      2.056451     0.643912     2.408748
H      1.100768     0.132345     2.590411
H      2.360947     1.119483     3.350178
C      3.093634    -0.377237     1.987443
H      3.296344    -1.024645     2.855468
O      2.571717    -1.247506     0.951501
C      3.356384    -1.072307    -0.240664
H      3.314556    -2.016774    -0.793131
H      2.919826    -0.280139    -0.858004
C      4.743068    -0.702497     0.269265
H      5.366047    -0.223298    -0.494961
H      5.262162    -1.599808     0.630074
C      4.389384     0.231141     1.429642
H      4.181383     1.241270     1.062997
H      5.172775     0.291144     2.193526
