32
Energy = -1142.566088213 Hartree (EUMP2 CORRECTED)
O     -0.655835     0.463057    -1.750042
C      0.350007     1.458280    -2.012011
H      0.303508     1.691773    -3.079814
H      1.343727     1.065602    -1.756807
C     -0.723176     0.417979    -0.309054
H     -1.660859    -0.075549    -0.042236
H      0.110107    -0.157264     0.095991
C     -0.031190     2.609768    -1.087201
H      0.820894     3.209395    -0.755634
H     -0.761096     3.264963    -1.577815
C     -0.665022     1.900671     0.135803
H     -1.681676     2.272013     0.308516
O      0.050590     2.232041     1.332360
P      1.120712     1.227381     2.105009
O      0.526640    -0.139924     2.366966
O      1.791400     2.051119     3.177430
O      2.166014     1.097164     0.778207
C      3.187413     0.103221     0.848937
H      3.185080    -0.409123     1.821789
H      3.002449    -0.646625     0.066889
C      4.532589     0.766104     0.614644
H      5.316986    -0.005274     0.626074
O      4.574069     1.349467    -0.712737
C      4.379119     2.765507    -0.558658
H      4.761999     3.238417    -1.469215
H      3.311333     2.984953    -0.438909
C      5.153619     3.109009     0.706572
H      4.849771     4.065063     1.147246
H      6.226452     3.150720     0.479605
C      4.818580     1.912349     1.607809
H      3.928470     2.119909     2.211704
H      5.641975     1.656853     2.284584
