32
Energy = -1142.573252785 Hartree (EUMP2 CORRECTED)
O      0.119513    -0.180477     0.367222
C      1.263336     0.684360     0.179710
H      2.097874     0.042812    -0.120031
H      1.506553     1.194231     1.120491
C     -1.071416     0.590079     0.076951
H     -1.636656     0.050084    -0.694413
H     -1.679290     0.681134     0.982693
C      0.815241     1.681909    -0.873557
H      0.806606     1.210092    -1.865603
H      1.398421     2.604347    -0.916704
C     -0.614107     1.965160    -0.412206
H     -1.240992     2.369621    -1.214940
O     -0.608744     2.843169     0.715421
P     -0.496936     4.510488     0.425216
O     -0.286700     4.701427    -1.056555
O      0.380045     5.061308     1.522401
O     -2.086880     4.948190     0.733713
C     -2.465668     5.320695     2.062760
H     -2.741387     6.384042     2.056676
H     -1.621642     5.183277     2.750570
C     -3.658005     4.502397     2.526260
H     -3.847891     4.744093     3.581374
O     -4.873303     4.850096     1.832097
C     -4.905012     4.080599     0.611200
H     -5.962602     3.893400     0.394449
H     -4.460080     4.665444    -0.200421
C     -4.092538     2.797759     0.874349
H     -3.292718     2.700414     0.138306
H     -4.723335     1.901954     0.826754
C     -3.501726     2.999903     2.282539
H     -2.456633     2.681519     2.333978
H     -4.086159     2.450096     3.030170
