32
Energy = -1142.565441998 Hartree (EUMP2 CORRECTED)
O      1.836174     0.384848    -1.182429
C      2.616493     1.506533    -0.735358
H      3.553200     1.486786    -1.301441
H      2.816469     1.419729     0.339478
C      0.468411     0.656178    -0.802531
H     -0.157183     0.342894    -1.647149
H      0.209713     0.088332     0.092635
C      1.716388     2.694591    -1.044114
H      1.977451     3.619480    -0.521561
H      1.705444     2.870698    -2.128318
C      0.350909     2.181000    -0.567692
H     -0.473225     2.600646    -1.157791
O      0.115112     2.639469     0.768708
P      0.275564     1.795577     2.209325
O      0.438328     2.869249     3.259307
O      1.191162     0.608900     2.044991
O     -1.273254     1.166138     2.338909
C     -2.336374     2.062058     2.673917
H     -3.079767     2.029477     1.865726
H     -1.957741     3.086355     2.785244
C     -2.985003     1.623968     3.975460
H     -3.756816     2.359943     4.242556
O     -3.679473     0.368081     3.840373
C     -2.720464    -0.689276     4.071844
H     -3.275644    -1.502765     4.552911
H     -2.321214    -1.033122     3.112463
C     -1.603919    -0.099397     4.953916
H     -0.634559    -0.204998     4.461825
H     -1.554804    -0.598576     5.928956
C     -1.978004     1.388080     5.102825
H     -1.107888     2.045763     5.011790
H     -2.472546     1.567711     6.065325
