32
Energy = -1142.569560354 Hartree (EUMP2 CORRECTED)
O      0.675929    -0.248520     0.551003
C      1.733469     0.522929    -0.054533
H      2.469907    -0.192442    -0.433446
H      2.203050     1.176721     0.692597
C     -0.526878     0.557552     0.507492
H     -1.324208    -0.072853     0.095584
H     -0.795321     0.886738     1.516689
C      1.033373     1.346750    -1.122054
H      0.775625     0.709821    -1.979345
H      1.596629     2.220129    -1.459624
C     -0.232764     1.775541    -0.374542
H     -1.074350     2.026105    -1.031093
O      0.053286     2.882446     0.485468
P     -0.289111     4.419954    -0.093149
O      0.030294     5.374250     1.022085
O     -1.608986     4.370432    -0.840706
O      0.931858     4.540281    -1.258372
C      0.560821     4.735629    -2.623657
H     -0.386922     4.237282    -2.855742
H      1.366412     4.303579    -3.230268
C      0.475182     6.223382    -2.934903
H      1.267344     6.741334    -2.375584
O      0.734560     6.387943    -4.364954
C     -0.182010     7.350366    -4.917037
H      0.387151     8.033354    -5.558827
H     -0.924130     6.824611    -5.535855
C     -0.845550     8.027820    -3.722751
H     -1.835173     8.433504    -3.962678
H     -0.219111     8.848002    -3.350366
C     -0.881499     6.881347    -2.714365
H     -1.679947     6.168370    -2.948383
H     -1.021849     7.196003    -1.676472
