32
Energy = -1142.566751105 Hartree (EUMP2 CORRECTED)
O      1.781668    -0.030905    -0.061067
C      1.189330     0.097911    -1.374692
H      1.387064    -0.839459    -1.904033
H      1.652932     0.932383    -1.915590
C      0.994947     0.758417     0.861894
H      0.653686     0.092190     1.665452
H      1.611376     1.560007     1.282042
C     -0.279213     0.381296    -1.111290
H     -0.796896    -0.538266    -0.806045
H     -0.797822     0.844987    -1.954895
C     -0.174802     1.342887     0.074976
H     -1.096609     1.411528     0.666128
O      0.215574     2.648519    -0.359556
P     -1.005222     3.580784    -1.073913
O     -2.234054     3.549700    -0.201195
O     -1.029253     3.241241    -2.553225
O     -0.256317     5.052155    -0.876880
C      1.134770     5.156217    -1.200467
H      1.473846     4.293376    -1.783406
H      1.694387     5.170448    -0.255607
C      1.420864     6.435701    -2.013469
H      2.242382     6.998621    -1.555252
O      1.888174     6.107431    -3.339997
C      0.698132     5.740462    -4.081189
H      0.924880     5.930875    -5.134716
H      0.475655     4.677506    -3.933363
C     -0.445450     6.604950    -3.514276
H     -1.278021     5.964242    -3.214806
H     -0.806947     7.337470    -4.245185
C      0.186919     7.295371    -2.291410
H     -0.494919     7.345733    -1.439256
H      0.525939     8.306811    -2.546491
