32
Energy = -1142.566338088 Hartree (EUMP2 CORRECTED)
O     -0.114081    -0.483797    -0.553423
C      0.392412     0.467391    -1.508359
H      0.089369     0.112292    -2.498356
H      1.484546     0.527779    -1.441325
C     -0.082495     0.178995     0.728880
H     -0.955342    -0.182703     1.284469
H      0.840900    -0.064274     1.257942
C     -0.264491     1.772257    -1.079127
H     -1.316012     1.773280    -1.395698
H      0.236044     2.670771    -1.450190
C     -0.170993     1.700636     0.455963
H     -1.056662     2.135013     0.932290
O      0.899914     2.509865     0.961217
P      2.534422     2.199202     0.865071
O      2.811388     0.727020     0.657504
O      3.200631     3.022925     1.940814
O      2.734065     2.999261    -0.609616
C      4.068610     3.361591    -0.970610
H      4.323507     2.858076    -1.912886
H      4.786316     3.054901    -0.196866
C      4.159960     4.866149    -1.159097
H      5.206310     5.124912    -1.376097
O      3.407727     5.312043    -2.306470
C      2.053445     5.571622    -1.875449
H      1.707446     6.433438    -2.458344
H      1.428143     4.702867    -2.107644
C      2.100342     5.833994    -0.358592
H      1.491717     5.102689     0.177624
H      1.737825     6.839424    -0.112581
C      3.585047     5.663165     0.012357
H      3.706607     5.135375     0.963419
H      4.087573     6.637232     0.060302
