32
Energy = -1142.569293243 Hartree (EUMP2 CORRECTED)
O      0.578624     0.385632    -2.095825
C      1.739407     1.241118    -2.193901
H      2.088403     1.179095    -3.229110
H      2.515558     0.892170    -1.504258
C     -0.038646     0.773543    -0.856525
H     -1.067152     0.400824    -0.878781
H      0.499504     0.348112    -0.002998
C      1.239307     2.623096    -1.774207
H      2.002985     3.206598    -1.255092
H      0.887025     3.189627    -2.644599
C      0.053573     2.312566    -0.827135
H     -0.868026     2.744082    -1.233718
O      0.136754     2.877973     0.481407
P      1.393360     2.505954     1.539567
O      1.703818     3.786443     2.278383
O      2.413705     1.644695     0.836533
O      0.568607     1.486923     2.580262
C     -0.442844     2.053519     3.416529
H     -1.410527     1.624568     3.124391
H     -0.477294     3.145243     3.302218
C     -0.145241     1.709612     4.865707
H     -0.941789     2.131465     5.495647
O     -0.197623     0.279280     5.078650
C      1.157615    -0.201696     5.007331
H      1.168358    -1.182017     5.494960
H      1.466449    -0.295016     3.960570
C      1.967509     0.867191     5.733042
H      3.027183     0.853790     5.455410
H      1.888624     0.715037     6.816557
C      1.262934     2.166364     5.307040
H      1.775722     2.651847     4.471763
H      1.203918     2.887153     6.130409
