32
Energy = -1142.560847173 Hartree (EUMP2 CORRECTED)
O      1.829645     0.716931    -0.819517
C      1.639995     1.856485    -1.691987
H      2.174679     1.629929    -2.620777
H      2.049572     2.763599    -1.232370
C      0.687084     0.651766     0.067900
H      0.273260    -0.362674    -0.002173
H      1.001805     0.855620     1.096750
C      0.131846     1.967926    -1.837198
H     -0.248113     1.172912    -2.494035
H     -0.216463     2.941656    -2.187810
C     -0.312581     1.712013    -0.395785
H     -1.356916     1.390827    -0.312908
O     -0.101072     2.871735     0.414761
P     -1.273163     4.065520     0.417616
O     -0.961969     4.985046     1.573691
O     -2.608103     3.404534     0.160432
O     -0.849009     4.878636    -1.011235
C     -0.495480     6.247629    -0.896636
H     -0.882480     6.729939    -1.806850
H     -0.968347     6.714474    -0.025619
C      1.033375     6.459236    -0.805644
H      1.344568     6.544205     0.238579
O      1.772149     5.344675    -1.336173
C      1.638702     5.425639    -2.759009
H      2.505704     4.914855    -3.189408
H      0.723621     4.906203    -3.070884
C      1.574499     6.932161    -3.098803
H      0.692790     7.159413    -3.707226
H      2.455097     7.265400    -3.658275
C      1.496279     7.603699    -1.713883
H      0.818206     8.466445    -1.695569
H      2.486651     7.944739    -1.392656
