32
Energy = -1142.571841763 Hartree (EUMP2 CORRECTED)
O      1.043692     0.069702     0.474843
C      1.548449     0.818383    -0.660575
H      2.277994     0.177604    -1.167578
H      2.043416     1.731846    -0.312676
C     -0.360056     0.365015     0.624957
H     -0.932243    -0.557713     0.444582
H     -0.547077     0.720278     1.643292
C      0.319200     1.139810    -1.492276
H     -0.003510     0.252732    -2.056264
H      0.437382     1.981319    -2.176979
C     -0.713792     1.439411    -0.400619
H     -1.749288     1.371061    -0.758809
O     -0.493648     2.695115     0.243021
P     -0.400238     4.147477    -0.611116
O     -1.053240     5.185347     0.267799
O     -0.715495     3.917422    -2.068656
O      1.262746     4.360073    -0.518163
C      1.817947     4.596178     0.773844
H      1.754933     3.684679     1.384259
H      1.267882     5.402406     1.281441
C      3.268444     4.992690     0.579019
H      3.712771     5.205652     1.561174
O      4.036462     3.893104     0.032501
C      4.148336     4.120542    -1.382098
H      4.986435     3.510875    -1.734897
H      3.221682     3.819923    -1.885106
C      4.375285     5.623980    -1.493648
H      4.147525     6.016652    -2.490985
H      5.420806     5.855510    -1.256519
C      3.432737     6.169624    -0.409813
H      2.458944     6.422777    -0.838188
H      3.838183     7.059114     0.085063
