32
Energy = -1142.562410559 Hartree (EUMP2 CORRECTED)
O      0.885538    -0.123656     1.498617
C      1.574387    -0.089392     0.223037
H      1.330252    -1.017815    -0.308917
H      2.655492    -0.071254     0.407134
C      0.009749     1.014939     1.558964
H     -0.867741     0.729356     2.145587
H      0.504842     1.873522     2.033735
C      1.072969     1.145321    -0.523890
H      1.028869     0.996466    -1.603445
H      1.696592     2.023047    -0.316614
C     -0.303526     1.381167     0.110862
H     -1.043508     0.685625    -0.316925
O     -0.814058     2.697513     0.115639
P     -1.002417     3.738264    -1.193555
O     -0.350655     5.046775    -0.813176
O     -2.424896     3.610515    -1.683019
O     -0.052643     2.975563    -2.353698
C      1.146576     3.601941    -2.813847
H      1.960215     2.865084    -2.756822
H      1.386173     4.467133    -2.182253
C      0.989016     4.042741    -4.258589
H      1.904816     4.574019    -4.555132
O      0.885271     2.921050    -5.157283
C     -0.510834     2.546037    -5.228295
H     -0.672585     2.172185    -6.245813
H     -0.707071     1.744888    -4.508092
C     -1.334201     3.801997    -4.891078
H     -1.999242     3.614578    -4.044416
H     -1.934831     4.128979    -5.748204
C     -0.278240     4.860737    -4.516508
H     -0.572675     5.450048    -3.642201
H     -0.095622     5.544098    -5.354741
