32
Energy = -1142.566324506 Hartree (EUMP2 CORRECTED)
O      1.549546     0.141740     0.667243
C      2.016348     0.988096    -0.408329
H      2.855982     0.468495    -0.881311
H      2.365609     1.945640    -0.000659
C      0.117744     0.322085     0.796047
H     -0.358751    -0.655747     0.643619
H     -0.115862     0.697431     1.796940
C      0.807940     1.186618    -1.306683
H      0.639053     0.290274    -1.919455
H      0.839798     2.067914    -1.951324
C     -0.306399     1.327739    -0.271069
H     -1.300219     1.107525    -0.679617
O     -0.282203     2.624357     0.329691
P     -1.163545     3.844727    -0.451611
O     -2.492204     4.039813     0.231497
O     -1.019433     3.602227    -1.940030
O     -0.192621     5.120919     0.018597
C      1.200654     4.971993     0.257677
H      1.740253     4.815087    -0.688070
H      1.389269     4.117564     0.921340
C      1.693412     6.243994     0.923978
H      2.756612     6.116640     1.171714
O      1.635317     7.371977     0.022725
C      0.414693     8.075448     0.313854
H      0.521860     9.079841    -0.107861
H     -0.434397     7.558714    -0.146731
C      0.328581     8.040344     1.835734
H     -0.687099     8.214514     2.207620
H      0.992751     8.803766     2.258816
C      0.841849     6.627372     2.156864
H      0.006197     5.929040     2.256503
H      1.433557     6.601067     3.078683
