32
Energy = -1142.570404063 Hartree (EUMP2 CORRECTED)
O      1.173754    -0.384128     0.211066
C      2.096664     0.699607    -0.001199
H      3.058457     0.250517    -0.267309
H      2.206472     1.295276     0.915525
C     -0.160246     0.147549     0.013356
H     -0.698806    -0.566362    -0.620231
H     -0.671765     0.253750     0.975630
C      1.448322     1.526591    -1.100207
H      1.557298     1.016049    -2.066857
H      1.832527     2.547692    -1.173236
C     -0.013781     1.528179    -0.642617
H     -0.742406     1.670919    -1.448329
O     -0.185537     2.532299     0.356342
P     -1.144527     3.874315     0.010079
O     -1.275925     4.627096     1.302095
O     -2.276677     3.414150    -0.884886
O     -0.086936     4.778710    -0.944699
C     -0.073898     4.590431    -2.356696
H     -1.090752     4.644477    -2.762741
H      0.353675     3.609728    -2.623212
C      0.797998     5.676898    -2.962282
H      0.949680     5.447367    -4.026015
O      0.171864     6.970150    -2.932323
C      0.437953     7.551225    -1.635091
H      0.483895     8.634371    -1.791900
H     -0.379860     7.308716    -0.950724
C      1.765378     6.942091    -1.142703
H      1.620440     6.472035    -0.168154
H      2.552988     7.700151    -1.058839
C      2.115632     5.884724    -2.207693
H      2.486650     4.956109    -1.762084
H      2.873027     6.266424    -2.903054
