32
Energy = -1142.571339314 Hartree (EUMP2 CORRECTED)
O      1.004459    -0.279419    -0.665337
C      1.637410     0.848305    -1.313078
H      2.208691     0.447631    -2.156219
H      2.313235     1.354497    -0.612857
C     -0.225810     0.188273    -0.063014
H     -1.043348    -0.432572    -0.453001
H     -0.167258     0.083261     1.025634
C      0.485448     1.759803    -1.699808
H     -0.046062     1.357156    -2.572615
H      0.777937     2.794913    -1.895704
C     -0.392179     1.655693    -0.451495
H     -1.432183     1.947324    -0.635449
O      0.154561     2.440593     0.609983
P     -0.125342     4.108570     0.562743
O     -1.369131     4.304871    -0.288159
O      1.165644     4.846639     0.340877
O     -0.542379     4.308676     2.165935
C     -1.443330     3.381564     2.767900
H     -0.887028     2.770496     3.490296
H     -1.894937     2.718014     2.017212
C     -2.550986     4.148974     3.469355
H     -3.242440     3.425716     3.925713
O     -2.029308     4.932316     4.567343
C     -1.836593     6.269177     4.069202
H     -1.778369     6.924455     4.944395
H     -0.906091     6.322808     3.493675
C     -3.054800     6.512350     3.184784
H     -2.891793     7.309719     2.451433
H     -3.913893     6.783751     3.810625
C     -3.266135     5.139798     2.523348
H     -2.812224     5.101877     1.527893
H     -4.329866     4.894763     2.424450
