32
Energy = -1142.567416635 Hartree (EUMP2 CORRECTED)
O      0.966529     0.163745     1.122971
C      2.085634     1.026211     0.863903
H      2.990672     0.450841     1.083006
H      2.046430     1.915093     1.508877
C     -0.154100     0.662282     0.342896
H     -0.610656    -0.199558    -0.155749
H     -0.888886     1.140152     0.996310
C      1.913923     1.415851    -0.596865
H      2.174657     0.565186    -1.239999
H      2.488249     2.297137    -0.899360
C      0.411558     1.686735    -0.652001
H     -0.033872     1.559743    -1.643675
O      0.216983     3.022357    -0.177985
P     -1.264627     3.776327    -0.507854
O     -1.602596     4.650898     0.667900
O     -2.163017     2.705925    -1.090344
O     -0.786211     4.829133    -1.724990
C      0.273973     4.567525    -2.630649
H     -0.131666     4.583216    -3.651677
H      0.737467     3.588592    -2.450005
C      1.335998     5.649421    -2.495072
H      2.135331     5.446025    -3.223550
O      0.794108     6.939141    -2.857302
C      0.435452     7.598320    -1.626215
H      0.343641     8.664277    -1.858006
H     -0.515324     7.203401    -1.252588
C      1.582908     7.256456    -0.684118
H      1.312506     7.374379     0.370559
H      2.444631     7.899012    -0.903797
C      1.875032     5.793445    -1.053472
H      1.349943     5.109521    -0.383106
H      2.945721     5.561370    -1.005011
