32
Energy = -1142.573580010 Hartree (EUMP2 CORRECTED)
O      1.932604     0.473637    -0.720043
C      1.575663     1.296693    -1.857532
H      1.989991     0.813052    -2.748862
H      2.019693     2.292118    -1.744348
C      0.815561     0.451277     0.200585
H      0.419234    -0.573837     0.239381
H      1.164218     0.751782     1.193130
C      0.059167     1.379305    -1.838039
H     -0.384801     0.467097    -2.260295
H     -0.342727     2.251178    -2.357994
C     -0.223219     1.426483    -0.335938
H     -1.253338     1.139851    -0.094777
O      0.075052     2.701594     0.238875
P     -0.909210     4.004125    -0.181319
O     -0.767606     5.014046     0.932098
O     -2.207920     3.445485    -0.707856
O     -0.047608     4.566086    -1.516360
C      0.749361     5.749569    -1.432682
H      0.367525     6.409661    -0.644828
H      0.667017     6.258268    -2.400418
C      2.214829     5.440159    -1.145161
H      2.651753     4.903142    -1.999548
O      2.931359     6.706950    -1.054712
C      3.405772     6.849520     0.294382
H      4.280344     7.507463     0.257659
H      2.631225     7.313508     0.924162
C      3.687957     5.426055     0.747656
H      3.766715     5.327796     1.836538
H      4.623383     5.072246     0.295500
C      2.473902     4.691946     0.170091
H      1.610960     4.796271     0.835225
H      2.641012     3.623513     0.017148
