32
Energy = -1142.561009197 Hartree (EUMP2 CORRECTED)
O      0.780669    -0.668189    -0.217972
C      0.126039    -0.291806    -1.439283
H     -0.851000    -0.803202    -1.514771
H      0.763495    -0.622610    -2.263996
C      0.170828     0.125785     0.827602
H     -0.617496    -0.467433     1.314698
H      0.944676     0.393659     1.550116
C     -0.034541     1.218280    -1.339708
H     -0.812968     1.616352    -2.001343
H      0.905182     1.721889    -1.560032
C     -0.416160     1.382602     0.140113
H     -1.511764     1.335805     0.211443
O     -0.119718     2.612804     0.791731
P      1.410759     3.253044     1.087898
O      2.121919     2.376842     2.100556
O      1.189186     4.732405     1.236959
O      2.174668     3.005016    -0.391660
C      3.228953     2.043174    -0.474281
H      2.823492     1.024638    -0.549900
H      3.864352     2.091091     0.419518
C      4.027641     2.377389    -1.718099
H      4.849618     1.654714    -1.819093
O      3.209067     2.212654    -2.905376
C      2.796427     3.525438    -3.322131
H      2.502354     3.445728    -4.373802
H      1.947328     3.862863    -2.715191
C      4.024999     4.391588    -3.075022
H      3.792249     5.461494    -3.032976
H      4.760615     4.222399    -3.871070
C      4.525606     3.839102    -1.733434
H      4.068295     4.386436    -0.903764
H      5.615321     3.896691    -1.634660
