32
Energy = -1142.558651606 Hartree (EUMP2 CORRECTED)
O      1.658313     0.230269    -0.004303
C      1.989575     1.366472    -0.826105
H      2.801415     1.051233    -1.489107
H      2.339154     2.195625    -0.194920
C      0.284334     0.395798     0.426330
H     -0.219871    -0.563266     0.259783
H      0.252580     0.652532     1.491002
C      0.688663     1.716327    -1.529531
H      0.493290     0.985236    -2.325345
H      0.640339     2.724226    -1.951716
C     -0.327535     1.532867    -0.399061
H     -1.327643     1.298836    -0.777241
O     -0.402561     2.687312     0.450593
P     -1.336280     3.982770    -0.118303
O     -1.739799     4.745204     1.118857
O     -2.268489     3.482925    -1.192409
O     -0.142460     4.870529    -0.914696
C      1.096704     5.060080    -0.250018
H      1.016813     5.953941     0.389208
H      1.332920     4.214764     0.407910
C      2.239228     5.239183    -1.275005
H      2.773099     4.296459    -1.431293
O      1.787730     5.636386    -2.574844
C      1.392108     7.010037    -2.434977
H      1.469366     7.462454    -3.427988
H      0.351128     7.049063    -2.094030
C      2.361373     7.622894    -1.396097
H      1.807640     8.112351    -0.588585
H      3.025426     8.370432    -1.842984
C      3.151617     6.402977    -0.876682
H      3.347813     6.446499     0.201338
H      4.110978     6.309154    -1.397711
