32
Energy = -1142.564067659 Hartree (EUMP2 CORRECTED)
O      1.271400    -0.054115     0.929765
C      1.868762     0.808179    -0.061998
H      2.751408     0.286205    -0.443839
H      2.167518     1.761657     0.392210
C     -0.135893     0.274287     0.997437
H     -0.694841    -0.666342     0.914942
H     -0.364038     0.761645     1.950895
C      0.764787     1.025642    -1.082355
H      0.629653     0.118172    -1.688108
H      0.915521     1.887114    -1.736776
C     -0.440230     1.233680    -0.160495
H     -1.399395     0.989202    -0.634963
O     -0.456870     2.548293     0.376210
P     -1.019665     3.881575    -0.499719
O      0.081423     4.907865    -0.507172
O     -2.446309     4.139630    -0.074981
O     -1.052728     3.260162    -2.066526
C     -2.206306     2.613280    -2.599046
H     -3.059646     2.718654    -1.917921
H     -1.973983     1.544955    -2.747291
C     -2.549269     3.223166    -3.953874
H     -3.198069     2.521977    -4.497162
O     -3.304257     4.437425    -3.846870
C     -2.357696     5.505019    -3.607074
H     -2.803209     6.406822    -4.039983
H     -2.229399     5.644543    -2.529821
C     -1.041168     5.078742    -4.287707
H     -0.221166     5.112820    -3.567281
H     -0.797517     5.729293    -5.135989
C     -1.306000     3.631712    -4.752446
H     -0.453142     2.972913    -4.559865
H     -1.542385     3.601139    -5.822956
