32
Energy = -1142.568149668 Hartree (EUMP2 CORRECTED)
O     -0.607099    -0.033779     1.756567
C      0.653095     0.315814     1.141987
H      1.371456    -0.458318     1.430215
H      0.994658     1.290940     1.513421
C     -1.669944     0.462312     0.905813
H     -2.313957    -0.389124     0.649190
H     -2.249857     1.219266     1.443360
C      0.350756     0.382034    -0.344804
H      0.249238    -0.631465    -0.756287
H      1.081347     0.948507    -0.926854
C     -1.014621     1.072363    -0.331366
H     -1.586056     0.907672    -1.251363
O     -0.890302     2.478945    -0.090552
P     -0.447884     3.455829    -1.387188
O     -0.769963     4.870470    -0.973579
O     -0.890507     2.781574    -2.662933
O      1.228237     3.270934    -1.333348
C      1.947060     4.206974    -0.525705
H      2.890477     3.718329    -0.256566
H      1.381055     4.423122     0.387009
C      2.295716     5.524934    -1.248054
H      1.919131     6.370210    -0.658990
O      3.754627     5.684796    -1.286957
C      4.168227     5.854736    -2.650409
H      5.053090     6.500818    -2.646574
H      4.441088     4.881004    -3.087740
C      2.953861     6.438939    -3.355900
H      2.990953     6.318639    -4.445057
H      2.866081     7.508392    -3.125781
C      1.829499     5.637864    -2.700218
H      1.755453     4.640211    -3.144670
H      0.842185     6.100969    -2.760910
