32
Energy = -1142.566091115 Hartree (EUMP2 CORRECTED)
O      1.625005     0.305933     0.595929
C      2.050879     1.451538    -0.166909
H      2.971196     1.164277    -0.685975
H      2.251235     2.299961     0.500602
C      0.180680     0.373234     0.733767
H     -0.224308    -0.584741     0.382043
H     -0.089254     0.534096     1.781936
C      0.872862     1.753832    -1.080092
H      0.829290     1.018713    -1.894639
H      0.871293     2.767126    -1.492081
C     -0.298390     1.553879    -0.120170
H     -1.242671     1.334727    -0.624687
O     -0.397530     2.727818     0.681894
P     -1.864786     3.376597     1.211890
O     -1.863233     4.836182     0.827272
O     -2.148344     2.842790     2.592695
O     -2.929578     2.551324     0.195789
C     -3.146912     3.097042    -1.103913
H     -2.203909     3.176140    -1.664125
H     -3.579850     4.104683    -1.029512
C     -4.088814     2.154151    -1.826357
H     -4.295043     2.550884    -2.830454
O     -3.448840     0.868752    -2.032027
C     -3.977825    -0.034267    -1.045811
H     -3.788253    -1.048547    -1.411093
H     -3.474162     0.122939    -0.083896
C     -5.451638     0.340648    -0.961303
H     -5.933513    -0.022038    -0.046550
H     -5.985892    -0.069911    -1.826772
C     -5.382739     1.872341    -1.031440
H     -5.289969     2.294373    -0.026538
H     -6.260667     2.312070    -1.517560
