32
Energy = -1142.561330268 Hartree (EUMP2 CORRECTED)
O      1.865639     0.663753     0.723799
C      1.817496     1.572718    -0.402802
H      2.697745     1.360523    -1.017581
H      1.838798     2.613671    -0.061372
C      0.507360     0.388937     1.129334
H      0.364617    -0.700558     1.108016
H      0.335365     0.766232     2.142711
C      0.491111     1.269507    -1.078282
H      0.548963     0.316816    -1.624164
H      0.155078     2.063808    -1.748898
C     -0.420278     1.100202     0.140547
H     -1.310642     0.494625    -0.064179
O     -0.797999     2.336631     0.742807
P     -1.342166     3.700982    -0.090935
O     -0.156447     4.432611    -0.669607
O     -2.383797     4.318430     0.807581
O     -2.104197     3.046527    -1.448111
C     -2.994425     1.936938    -1.376578
H     -3.280481     1.710730    -0.340618
H     -2.496009     1.060698    -1.821051
C     -4.257533     2.225146    -2.183080
H     -4.744684     1.267600    -2.415086
O     -5.229855     2.981427    -1.452259
C     -4.838110     4.374303    -1.551409
H     -5.765377     4.952070    -1.478141
H     -4.175292     4.623098    -0.717255
C     -4.128344     4.521340    -2.913179
H     -3.147042     4.982116    -2.780616
H     -4.712985     5.133154    -3.610261
C     -3.983509     3.074526    -3.429036
H     -2.992161     2.884421    -3.852173
H     -4.742650     2.851247    -4.188191
