32
Energy = -1142.565519764 Hartree (EUMP2 CORRECTED)
O      1.302238    -0.114481     0.674965
C      1.832909     0.803394    -0.305036
H      2.681071     0.301512    -0.780690
H      2.172696     1.726061     0.182832
C     -0.096900     0.207918     0.859991
H     -0.663410    -0.725808     0.753676
H     -0.256857     0.629695     1.857437
C      0.659337     1.087376    -1.226700
H      0.474872     0.223123    -1.880429
H      0.765864     1.989780    -1.832772
C     -0.474589     1.239342    -0.209838
H     -1.465610     1.040184    -0.636644
O     -0.431044     2.522884     0.400682
P     -1.177568     3.860782    -0.306712
O     -0.124164     4.931883    -0.433391
O     -2.531943     4.059030     0.332720
O     -1.415562     3.218551    -1.848823
C     -2.723196     3.092132    -2.400256
H     -3.454405     3.633629    -1.790803
H     -3.001431     2.023204    -2.422362
C     -2.709016     3.622348    -3.824925
H     -3.642882     3.315880    -4.317431
O     -2.692501     5.055155    -3.882310
C     -1.312982     5.485108    -3.773095
H     -1.237781     6.403407    -4.365582
H     -1.067964     5.696467    -2.728605
C     -0.450751     4.330479    -4.320065
H      0.271534     4.022071    -3.561566
H      0.092039     4.622030    -5.227087
C     -1.460325     3.202458    -4.609539
H     -1.088241     2.220351    -4.298288
H     -1.703389     3.161584    -5.678256
