32
Energy = -1142.572756965 Hartree (EUMP2 CORRECTED)
O      1.654555     0.972181     1.221795
C      2.182670     1.773906     0.141182
H      3.184382     1.391032    -0.079882
H      2.255597     2.821877     0.460185
C      0.219331     0.869854     1.049471
H     -0.032404    -0.195496     0.959206
H     -0.285722     1.299143     1.920029
C      1.180623     1.615210    -0.989185
H      1.308572     0.637311    -1.473806
H      1.195581     2.399721    -1.749054
C     -0.137338     1.645175    -0.216755
H     -0.966111     1.182898    -0.767909
O     -0.472393     2.975836     0.180590
P     -1.349636     3.922796    -0.930353
O     -2.802838     3.912058    -0.542347
O     -0.828472     3.580740    -2.311541
O     -0.716465     5.377509    -0.425431
C      0.621272     5.694782    -0.807971
H      0.599523     6.366167    -1.675759
H      1.178238     4.789130    -1.085640
C      1.311594     6.373806     0.361837
H      2.349600     6.594816     0.073676
O      0.705933     7.656446     0.647487
C     -0.208900     7.450502     1.739467
H     -0.407263     8.435911     2.173219
H     -1.138936     7.004531     1.369315
C      0.537211     6.495747     2.664146
H     -0.127740     5.967154     3.356140
H      1.277876     7.055178     3.248858
C      1.222329     5.548488     1.665912
H      0.617632     4.653245     1.496951
H      2.214701     5.235773     2.010476
