32
Energy = -1142.571652858 Hartree (EUMP2 CORRECTED)
O      1.585032     0.271060     0.229647
C      1.881331     1.352421    -0.683551
H      2.709835     1.015981    -1.314460
H      2.191254     2.246993    -0.131207
C      0.183809     0.361881     0.582818
H     -0.263949    -0.623102     0.398774
H      0.080637     0.623544     1.641388
C      0.576823     1.593999    -1.422607
H      0.416126     0.810558    -2.176024
H      0.505008     2.574858    -1.896797
C     -0.442436     1.449598    -0.291578
H     -1.440732     1.186679    -0.655537
O     -0.510765     2.644827     0.495896
P     -1.455728     3.914492    -0.098356
O     -2.104264     4.546248     1.107843
O     -2.173957     3.459259    -1.345120
O     -0.226040     4.937209    -0.625977
C      0.897454     5.156506     0.219020
H      1.230601     4.216470     0.672141
H      0.636871     5.861931     1.026153
C      2.005176     5.738352    -0.638530
H      2.874400     5.951426    -0.000010
O      2.457431     4.761995    -1.608927
C      1.861443     5.108855    -2.870029
H      2.454308     4.616294    -3.647417
H      0.823073     4.757386    -2.904770
C      1.928441     6.630614    -2.895540
H      1.247109     7.077287    -3.628480
H      2.951921     6.950024    -3.127015
C      1.557832     6.977052    -1.446931
H      0.475303     7.101187    -1.350504
H      2.047974     7.890916    -1.092873
