32
Energy = -1142.566090661 Hartree (EUMP2 CORRECTED)
O      2.150558     0.907266     1.198184
C      2.357491     2.112485     0.435063
H      3.427268     2.165592     0.210802
H      2.056023     2.991539     1.019687
C      0.777015     0.494632     0.994061
H      0.795240    -0.568735     0.725625
H      0.199029     0.639049     1.912289
C      1.457700     1.945120    -0.778457
H      1.900267     1.224237    -1.479523
H      1.239777     2.882213    -1.297377
C      0.196707     1.367877    -0.125207
H     -0.428053     0.793343    -0.817618
O     -0.553009     2.415469     0.475959
P     -1.891508     3.137187    -0.260770
O     -1.505128     4.565285    -0.581778
O     -3.122277     2.738024     0.507847
O     -1.958270     2.277590    -1.707072
C     -1.249351     2.739716    -2.855885
H     -0.536759     1.960691    -3.162426
H     -0.712461     3.671144    -2.630380
C     -2.238090     2.990404    -3.982347
H     -1.679876     3.311788    -4.873753
O     -2.907851     1.765787    -4.360006
C     -4.170536     1.751047    -3.664216
H     -4.809042     1.034639    -4.191288
H     -4.021522     1.437775    -2.625479
C     -4.652516     3.195134    -3.742489
H     -5.384791     3.435730    -2.964485
H     -5.108077     3.379473    -4.723209
C     -3.346105     3.991313    -3.585630
H     -3.199906     4.324226    -2.554532
H     -3.327028     4.877759    -4.229558
