32
Energy = -1142.567743927 Hartree (EUMP2 CORRECTED)
O      1.683285     0.590141     0.952923
C      0.931254    -0.083285    -0.085160
H      0.854011    -1.134012     0.211442
H      1.462736    -0.006651    -1.041492
C      1.205921     1.952751     1.039291
H      0.849503     2.121230     2.064633
H      2.024797     2.645025     0.815438
C     -0.393559     0.656845    -0.149148
H     -1.035526     0.370160     0.694846
H     -0.929333     0.522501    -1.092933
C      0.081060     2.101436     0.020092
H     -0.710841     2.787376     0.346183
O      0.667111     2.585520    -1.191181
P     -0.424821     3.032320    -2.411568
O     -1.498530     3.879366    -1.757141
O     -0.745735     1.824721    -3.258480
O      0.602591     4.039126    -3.248465
C      1.955158     4.335104    -2.916139
H      2.520565     4.312256    -3.856609
H      2.369620     3.591309    -2.225400
C      2.065408     5.726703    -2.309748
H      3.132618     5.947533    -2.152635
O      1.588242     6.723061    -3.241321
C      0.260627     7.089343    -2.816015
H      0.035126     8.051276    -3.287711
H     -0.460817     6.328015    -3.132847
C      0.368476     7.139329    -1.297950
H     -0.606428     7.078631    -0.802825
H      0.871229     8.065884    -0.992363
C      1.240979     5.908450    -1.015650
H      0.602185     5.039926    -0.846601
H      1.890697     6.039321    -0.142277
