32
Energy = -1142.567311054 Hartree (EUMP2 CORRECTED)
O      0.890284     0.639711     1.402354
C      1.586430     0.715343     0.133492
H      2.159516    -0.211820     0.029348
H      2.259001     1.579558     0.116508
C     -0.372343     1.317888     1.259869
H     -1.175082     0.594071     1.465472
H     -0.429727     2.143366     1.976789
C      0.483132     0.883476    -0.894935
H     -0.045046    -0.069027    -1.047633
H      0.829081     1.262841    -1.856042
C     -0.463099     1.851687    -0.173593
H     -1.487300     1.824970    -0.569043
O     -0.005630     3.205451    -0.136170
P      0.754194     4.026919    -1.377066
O      2.224006     3.670886    -1.408693
O      0.252386     5.451049    -1.351450
O     -0.003219     3.194288    -2.640506
C      0.173062     3.738572    -3.950477
H      0.662300     2.979102    -4.575314
H      0.806970     4.636176    -3.926752
C     -1.175657     4.095849    -4.549837
H     -1.005932     4.543475    -5.539603
O     -1.981758     2.924085    -4.789815
C     -2.729194     2.645430    -3.585419
H     -3.702843     2.261596    -3.912147
H     -2.208778     1.871866    -3.010230
C     -2.825147     3.964385    -2.795261
H     -2.363525     3.866457    -1.810224
H     -3.867095     4.278203    -2.659678
C     -2.035799     4.977464    -3.643957
H     -1.428956     5.637938    -3.016654
H     -2.714041     5.573635    -4.266693
