32
Energy = -1142.570957052 Hartree (EUMP2 CORRECTED)
O      1.215656     0.249510     0.570039
C      1.834383     1.228252    -0.294043
H      2.623326     0.707337    -0.845439
H      2.273587     2.036673     0.305318
C     -0.142020     0.688041     0.818050
H     -0.804206    -0.161036     0.606685
H     -0.247331     0.990819     1.865421
C      0.692328     1.747593    -1.148402
H      0.413484     0.995516    -1.899153
H      0.871442     2.704200    -1.643437
C     -0.417486     1.879716    -0.106054
H     -1.423195     1.845846    -0.541193
O     -0.249202     3.068698     0.677226
P     -0.843624     4.508790     0.037637
O     -0.963931     4.371349    -1.466713
O     -0.113486     5.613021     0.749828
O     -2.393359     4.412132     0.697292
C     -3.533577     4.382864    -0.152915
H     -3.251231     4.070446    -1.164087
H     -3.985337     5.388479    -0.208348
C     -4.538220     3.414899     0.445991
H     -5.443043     3.405836    -0.179201
O     -4.017727     2.063884     0.411468
C     -3.548106     1.754837     1.735427
H     -3.489422     0.663710     1.804357
H     -2.558740     2.199299     1.896126
C     -4.594088     2.385964     2.645241
H     -4.242764     2.518338     3.674845
H     -5.495392     1.760849     2.659577
C     -4.858089     3.716773     1.928061
H     -4.175366     4.487933     2.297045
H     -5.887452     4.069984     2.057620
