32
Energy = -1142.567383344 Hartree (EUMP2 CORRECTED)
O      1.378243    -0.289225    -0.285574
C      1.624126     0.630829    -1.372242
H      2.112857     0.058243    -2.166893
H      2.286791     1.440066    -1.038789
C      0.204034     0.170680     0.427147
H     -0.509874    -0.662446     0.460201
H      0.479805     0.465197     1.444830
C      0.252070     1.174675    -1.730424
H     -0.322000     0.419884    -2.285000
H      0.273062     2.114250    -2.287396
C     -0.353212     1.368741    -0.339491
H     -1.447696     1.410357    -0.344979
O      0.167664     2.549676     0.285880
P     -0.559015     4.009984    -0.069080
O     -0.120725     4.999848     0.983778
O     -2.001854     3.772920    -0.455674
O      0.337993     4.312184    -1.469430
C      0.301382     5.645186    -1.981539
H     -0.531442     6.213131    -1.548244
H      0.124151     5.561275    -3.060985
C      1.602868     6.454195    -1.728598
H      2.111958     6.612437    -2.687512
O      1.282610     7.786215    -1.267578
C      1.332917     7.718099     0.174349
H      1.377474     8.751219     0.533070
H      0.445404     7.209185     0.566229
C      2.581083     6.891303     0.457232
H      2.543585     6.417592     1.443010
H      3.472817     7.527705     0.395951
C      2.562273     5.850900    -0.680319
H      2.186115     4.890319    -0.328025
H      3.559169     5.698296    -1.109443
