32
Energy = -1142.570105174 Hartree (EUMP2 CORRECTED)
O     -0.898081    -0.396301     1.047052
C      0.443501     0.127818     0.932533
H      1.118738    -0.646247     1.311052
H      0.546103     1.035992     1.540793
C     -1.698297     0.199635    -0.003684
H     -2.147928    -0.618651    -0.581203
H     -2.484829     0.820186     0.437467
C      0.605388     0.448689    -0.542970
H      0.744572    -0.476264    -1.119110
H      1.413685     1.149925    -0.763177
C     -0.764059     1.053597    -0.858838
H     -1.007459     1.027543    -1.926517
O     -0.864573     2.398877    -0.377811
P     -0.167901     3.613029    -1.308295
O     -0.743664     4.919328    -0.821387
O     -0.142708     3.144614    -2.744228
O      1.425087     3.515223    -0.759565
C      1.889077     4.533998     0.130421
H      2.865938     4.185141     0.489636
H      1.211733     4.644096     0.985065
C      2.103937     5.886572    -0.560364
H      1.215188     6.510640    -0.440212
O      3.199755     6.593112     0.105012
C      4.283296     6.701832    -0.826049
H      4.877210     7.573667    -0.532003
H      4.923749     5.804775    -0.782309
C      3.606907     6.810812    -2.184701
H      4.284569     6.608500    -3.022755
H      3.189450     7.817602    -2.307942
C      2.498206     5.765662    -2.037992
H      2.880060     4.759921    -2.245501
H      1.639831     5.925617    -2.695511
