32
Energy = -1142.567039177 Hartree (EUMP2 CORRECTED)
O      1.346929    -0.099763    -0.821921
C      0.275431    -0.018567    -1.795221
H      0.163023    -1.016820    -2.230714
H      0.542845     0.698547    -2.580523
C      1.017514     0.765590     0.289565
H      0.894177     0.143851     1.187838
H      1.832931     1.479615     0.445456
C     -0.934485     0.469620    -1.016491
H     -1.380203    -0.349555    -0.435797
H     -1.695218     0.940470    -1.645023
C     -0.276367     1.479573    -0.074548
H     -0.894244     1.739129     0.793656
O      0.087304     2.665524    -0.782788
P     -1.189359     3.710514    -1.189623
O     -2.073632     3.812476     0.033820
O     -1.719235     3.334542    -2.553645
O     -0.273045     5.091227    -1.373355
C      1.066329     5.264366    -0.918842
H      1.382580     4.439912    -0.272109
H      1.114533     6.203211    -0.352602
C      1.983147     5.336280    -2.131235
H      1.749153     6.237829    -2.713432
O      3.359497     5.481812    -1.671803
C      4.095786     4.320368    -2.089794
H      5.142425     4.624202    -2.196171
H      4.028073     3.529730    -1.326372
C      3.419325     3.881164    -3.379557
H      3.656385     2.847847    -3.657652
H      3.721079     4.543830    -4.200776
C      1.946982     4.081228    -3.012209
H      1.575876     3.229621    -2.433467
H      1.282845     4.206799    -3.871647
