32
Energy = -1142.573140657 Hartree (EUMP2 CORRECTED)
O      0.778216     0.458717     1.320642
C      1.742736     1.240174     0.577133
H      2.658074     0.642539     0.519416
H      1.948296     2.179680     1.105583
C     -0.540713     0.779421     0.818104
H     -1.000719    -0.152058     0.461256
H     -1.147805     1.206926     1.623013
C      1.077345     1.513555    -0.760584
H      1.110236     0.616643    -1.394252
H      1.493780     2.371100    -1.296276
C     -0.359398     1.789465    -0.310701
H     -1.103245     1.673880    -1.109303
O     -0.468356     3.093778     0.263151
P     -0.583340     4.384770    -0.838409
O     -1.721983     4.083448    -1.779520
O      0.818029     4.738216    -1.294697
O     -1.103245     5.493465     0.284828
C     -0.141022     6.273099     1.000741
H     -0.169586     7.300796     0.616147
H      0.870798     5.874176     0.851683
C     -0.496390     6.274891     2.476809
H      0.248237     6.884332     3.009442
O     -1.767686     6.931560     2.701000
C     -2.753156     5.892432     2.836653
H     -3.622211     6.344114     3.325890
H     -3.031550     5.509177     1.847999
C     -2.045253     4.828318     3.666379
H     -2.515982     3.841790     3.587806
H     -2.038852     5.130325     4.721080
C     -0.628696     4.855142     3.071899
H     -0.530219     4.106609     2.281485
H      0.141779     4.665893     3.827982
