32
Energy = -1142.566194509 Hartree (EUMP2 CORRECTED)
O     -1.101378     0.166635    -1.094772
C     -0.197691     1.001228    -1.852022
H     -0.587269     1.034499    -2.874138
H      0.807782     0.565902    -1.855215
C     -0.816714     0.464633     0.284484
H     -1.682851     0.139642     0.868087
H      0.072466    -0.068871     0.632232
C     -0.205752     2.347742    -1.129518
H      0.767198     2.843171    -1.142551
H     -0.953633     3.020003    -1.567433
C     -0.596822     1.990737     0.325895
H     -1.542649     2.482529     0.580562
O      0.302690     2.468464     1.324515
P      1.788264     1.796006     1.680522
O      1.622101     0.591654     2.583089
O      2.724721     2.938274     1.991732
O      2.121030     1.207664     0.129785
C      2.948135     0.050987     0.011545
H      3.223767    -0.338399     1.000584
H      2.378067    -0.727195    -0.516750
C      4.183948     0.400282    -0.796519
H      4.790106    -0.509056    -0.926105
O      3.797538     0.811944    -2.133964
C      3.944948     2.240276    -2.199439
H      4.021951     2.503236    -3.259667
H      3.069988     2.728656    -1.752756
C      5.197783     2.520010    -1.381897
H      5.279117     3.566372    -1.067578
H      6.086916     2.255138    -1.968171
C      4.999310     1.564640    -0.198456
H      4.429088     2.063886     0.592236
H      5.946983     1.213243     0.225224
