32
Energy = -1142.573907582 Hartree (EUMP2 CORRECTED)
O      0.725132    -0.462345    -0.585362
C      1.532486     0.547101    -1.234152
H      2.123742     0.033850    -1.998804
H      2.200927     1.021212    -0.504703
C     -0.483515     0.176559    -0.111954
H     -1.335732    -0.381185    -0.521783
H     -0.514166     0.148716     0.982637
C      0.529286     1.551930    -1.772487
H      0.029964     1.149999    -2.664619
H      0.956472     2.534850    -1.989803
C     -0.456697     1.622737    -0.603645
H     -1.448591     1.996398    -0.887838
O      0.071136     2.424072     0.457596
P     -0.029604     4.098904     0.234307
O     -1.477266     4.404395    -0.106156
O      1.133100     4.597176    -0.585541
O      0.276261     4.496578     1.816693
C     -0.622483     4.008924     2.817662
H     -0.079038     3.292129     3.446022
H     -1.483988     3.507040     2.357329
C     -1.118999     5.171916     3.659209
H     -1.823821     4.781771     4.407215
O     -0.045866     5.772454     4.418129
C      0.463964     6.860518     3.623592
H      1.009103     7.517929     4.308926
H      1.138906     6.475685     2.852455
C     -0.780329     7.498173     3.008803
H     -0.557605     8.020156     2.072125
H     -1.213097     8.218916     3.712978
C     -1.727806     6.300803     2.799198
H     -1.773146     5.993476     1.750223
H     -2.745960     6.535733     3.129618
