32
Energy = -1142.572866351 Hartree (EUMP2 CORRECTED)
O      0.321777    -0.191790     0.503605
C      1.386841     0.765992     0.704452
H      2.320837     0.196620     0.743277
H      1.237709     1.299134     1.651689
C     -0.730741     0.461110    -0.246695
H     -0.903715    -0.125104    -1.159112
H     -1.646303     0.489477     0.352863
C      1.270682     1.719144    -0.472809
H      1.663256     1.250900    -1.385684
H      1.756025     2.687138    -0.324633
C     -0.247118     1.872809    -0.567422
H     -0.580575     2.240028    -1.543247
O     -0.720598     2.732126     0.473087
P     -0.654567     4.394666     0.211585
O     -0.237188     4.619617    -1.223722
O      0.037550     5.029206     1.398006
O     -2.304187     4.650462     0.368625
C     -2.763288     5.752992     1.156014
H     -3.430817     6.357171     0.527272
H     -1.915112     6.363891     1.489642
C     -3.530912     5.270483     2.375208
H     -3.784757     6.150160     2.983843
O     -4.794781     4.669770     2.027757
C     -4.543683     3.275675     1.745364
H     -5.457818     2.738813     2.023047
H     -4.355979     3.150403     0.673604
C     -3.310103     2.868368     2.572042
H     -2.546462     2.422917     1.932004
H     -3.574476     2.151159     3.358252
C     -2.796142     4.191674     3.174694
H     -1.710004     4.295305     3.087704
H     -3.081140     4.273032     4.230570
