32
Energy = -1142.566694025 Hartree (EUMP2 CORRECTED)
O      0.273360    -0.280916     0.586736
C      1.457563     0.357122     0.068745
H      2.133426    -0.441761    -0.251354
H      1.939790     0.959002     0.850799
C     -0.812065     0.670773     0.470438
H     -1.659609     0.139651     0.021180
H     -1.090219     1.048519     1.459973
C      0.943180     1.247365    -1.050147
H      0.681844     0.637201    -1.925556
H      1.633075     2.043232    -1.341229
C     -0.317282     1.830668    -0.402559
H     -1.078438     2.159031    -1.120465
O      0.033097     2.915036     0.459274
P     -0.115167     4.478628    -0.142754
O      0.254655     5.393981     0.987159
O     -1.397069     4.551266    -0.952618
O      1.158981     4.493427    -1.251579
C      0.863534     4.403203    -2.646007
H      1.766430     4.001976    -3.121004
H      0.019467     3.729911    -2.835981
C      0.588573     5.779336    -3.249919
H      1.047570     6.535816    -2.596561
O      1.241888     5.822156    -4.556340
C      0.469138     6.640489    -5.454978
H      1.120942     7.419709    -5.869597
H      0.116883     6.006427    -6.280616
C     -0.698528     7.195993    -4.636996
H     -1.598070     7.352480    -5.243524
H     -0.427514     8.155018    -4.178870
C     -0.859586     6.125936    -3.559900
H     -1.364567     5.238460    -3.962282
H     -1.406592     6.438336    -2.667861
