32
Energy = -1142.566429057 Hartree (EUMP2 CORRECTED)
O      1.916710     0.318613    -0.721288
C      1.510882     1.198435    -1.794436
H      1.766974     0.693249    -2.731070
H      2.052779     2.150352    -1.727478
C      1.037973     0.558745     0.404596
H      0.594818    -0.404303     0.689890
H      1.612232     0.966759     1.242659
C      0.023793     1.411515    -1.572058
H     -0.537343     0.517028    -1.875433
H     -0.381126     2.294184    -2.072716
C     -0.021682     1.560162    -0.050694
H     -1.013078     1.367753     0.373222
O      0.427603     2.860860     0.351624
P     -0.672026     4.116768     0.302071
O     -0.117780     5.252591     1.130156
O     -2.065028     3.550796     0.468244
O     -0.443966     4.527922    -1.324299
C     -0.662603     5.909801    -1.618092
H     -0.885399     5.970114    -2.689357
H     -1.528157     6.287356    -1.057823
C      0.569561     6.761017    -1.329314
H      1.303979     6.147092    -0.791188
O      1.144674     7.210466    -2.585512
C      2.117114     8.191957    -2.214882
H      3.077817     7.697174    -2.004691
H      2.247822     8.858692    -3.073040
C      1.573113     8.898159    -0.947538
H      1.331727     9.949892    -1.136526
H      2.313368     8.868747    -0.140593
C      0.329137     8.068884    -0.587295
H     -0.580269     8.540127    -0.981725
H      0.198440     7.889993     0.483374
