32
Energy = -1142.565274162 Hartree (EUMP2 CORRECTED)
O      1.361239    -0.083565     0.603311
C      1.879589     0.918840    -0.296717
H      2.761864     0.485248    -0.777274
H      2.164838     1.820502     0.260624
C     -0.050661     0.181415     0.778016
H     -0.581681    -0.764577     0.614159
H     -0.243281     0.546615     1.792048
C      0.721185     1.214414    -1.233709
H      0.592173     0.386191    -1.945074
H      0.807030     2.157220    -1.778420
C     -0.446425     1.255686    -0.243677
H     -1.414672     1.030011    -0.707848
O     -0.485391     2.500063     0.440799
P     -1.229565     3.860232    -0.234527
O     -0.202917     4.962254    -0.240324
O     -2.621819     3.970825     0.341307
O     -1.365391     3.344129    -1.835117
C     -2.615617     2.931312    -2.378791
H     -3.444164     3.323372    -1.778834
H     -2.671717     1.827956    -2.389626
C     -2.699938     3.435051    -3.810445
H     -3.556244     2.950469    -4.300310
O     -2.955880     4.844544    -3.886271
C     -1.684393     5.526775    -3.770973
H     -1.780808     6.444217    -4.361544
H     -1.490942     5.779232    -2.724752
C     -0.616289     4.556156    -4.312193
H      0.155370     4.399176    -3.555790
H     -0.145216     4.939423    -5.225091
C     -1.390349     3.251587    -4.586866
H     -0.838434     2.363748    -4.260065
H     -1.615981     3.149340    -5.655248
