32
Energy = -1142.569181190 Hartree (EUMP2 CORRECTED)
O      2.298688     0.648649     0.155002
C      2.292061     1.810589    -0.705598
H      3.175466     1.737198    -1.347730
H      2.350775     2.724398    -0.101239
C      0.927414     0.295824     0.434763
H      0.768317    -0.737164     0.093984
H      0.741884     0.364404     1.511260
C      0.969981     1.731662    -1.444127
H      1.014054     0.937923    -2.203549
H      0.647351     2.672299    -1.892901
C      0.030120     1.281899    -0.320756
H     -0.887435     0.805513    -0.698045
O     -0.304509     2.307787     0.615125
P     -0.963211     3.803431     0.232010
O     -0.651970     4.171913    -1.206815
O     -0.677134     4.686117     1.414468
O     -2.594706     3.411649     0.319489
C     -3.369512     3.249227    -0.868268
H     -3.903060     2.291335    -0.794175
H     -2.720143     3.247887    -1.753821
C     -4.384892     4.373444    -0.996026
H     -4.913015     4.252897    -1.952961
O     -5.404108     4.303614     0.019160
C     -4.902538     4.999382     1.185214
H     -5.778512     5.441109     1.673721
H     -4.427318     4.280221     1.859532
C     -3.882619     6.038759     0.684457
H     -2.916341     5.893942     1.173528
H     -4.224947     7.062265     0.878391
C     -3.773439     5.766509    -0.829382
H     -2.740331     5.805041    -1.188741
H     -4.373711     6.487367    -1.397841
