32
Energy = -1142.567798534 Hartree (EUMP2 CORRECTED)
O      1.522924     0.026199     0.131424
C      1.923375     1.112563    -0.726271
H      2.708749     0.727132    -1.383056
H      2.330186     1.938585    -0.125116
C      0.192362     0.338593     0.607801
H     -0.383821    -0.592523     0.570526
H      0.235621     0.706825     1.639539
C      0.642686     1.522193    -1.432979
H      0.400445     0.782103    -2.207258
H      0.673754     2.516148    -1.885765
C     -0.383956     1.435580    -0.300829
H     -1.385143     1.199823    -0.673302
O     -0.445799     2.643587     0.474561
P     -1.428882     3.885574    -0.112019
O     -1.954634     4.600286     1.106932
O     -2.276597     3.359127    -1.245632
O     -0.269744     4.873888    -0.836553
C      1.065622     4.957913    -0.368064
H      1.422326     3.978157    -0.035436
H      1.139971     5.657468     0.483173
C      1.915339     5.469369    -1.518366
H      2.968455     5.473142    -1.200416
O      1.849165     4.585252    -2.655518
C      0.917936     5.166128    -3.587882
H      1.123544     4.711850    -4.562144
H     -0.108199     4.944630    -3.273000
C      1.222194     6.659180    -3.516204
H      0.406851     7.279360    -3.905294
H      2.131331     6.876871    -4.089880
C      1.461687     6.862003    -2.011831
H      0.528150     7.139180    -1.512244
H      2.211714     7.632696    -1.803117
