32
Energy = -1142.571881724 Hartree (EUMP2 CORRECTED)
O      1.006953    -0.468595     0.323526
C      1.722364     0.398485    -0.580015
H      2.439650    -0.228313    -1.118990
H      2.258914     1.174315    -0.017326
C     -0.285776     0.136071     0.573705
H     -1.043671    -0.639369     0.408765
H     -0.337850     0.495111     1.606755
C      0.637609     1.018263    -1.444455
H      0.268956     0.281630    -2.171389
H      0.937599     1.936030    -1.956019
C     -0.437893     1.312530    -0.394723
H     -1.449673     1.390356    -0.808962
O     -0.120006     2.510391     0.322417
P     -0.782511     3.944255    -0.236457
O     -0.413745     4.995599     0.775545
O     -2.182429     3.680633    -0.749899
O      0.225035     4.142277    -1.580322
C     -0.327064     4.514214    -2.840929
H     -1.376710     4.809912    -2.740315
H     -0.276558     3.645970    -3.521892
C      0.492492     5.649694    -3.432594
H      0.206806     5.767379    -4.487825
O      0.216624     6.912917    -2.812922
C      1.048959     7.015370    -1.629127
H      1.286371     8.079650    -1.523046
H      0.494652     6.666546    -0.753386
C      2.288040     6.136006    -1.889521
H      2.381271     5.388116    -1.099644
H      3.209207     6.729834    -1.925305
C      2.002557     5.464051    -3.246551
H      2.293843     4.408215    -3.258015
H      2.530648     5.981254    -4.056892
