32
Energy = -1142.572158769 Hartree (EUMP2 CORRECTED)
O      0.743767     0.482736     1.345192
C      1.679568     1.532138     1.008659
H      2.683141     1.130662     1.182306
H      1.515785     2.400962     1.658400
C     -0.418570     0.626478     0.493466
H     -0.547314    -0.314449    -0.057853
H     -1.303829     0.821834     1.106952
C      1.377777     1.877852    -0.438575
H      1.790625     1.108798    -1.106067
H      1.720351     2.868425    -0.749484
C     -0.150723     1.802361    -0.442871
H     -0.578839     1.646357    -1.442216
O     -0.731752     2.963268     0.158919
P     -0.845743     4.323708    -0.837831
O     -1.823288     4.019112    -1.946472
O      0.546338     4.868830    -1.111250
O     -1.545189     5.234549     0.364896
C     -1.096928     6.568850     0.602134
H     -1.965493     7.234178     0.517909
H     -0.331321     6.859554    -0.128811
C     -0.522800     6.658356     2.007261
H     -0.206983     7.695465     2.192969
O     -1.543424     6.378823     2.993661
C     -1.401639     4.991477     3.356614
H     -1.920079     4.863759     4.312550
H     -1.852523     4.353579     2.588939
C      0.106161     4.782986     3.428904
H      0.388215     3.729081     3.333733
H      0.484961     5.163181     4.385921
C      0.613190     5.639958     2.257124
H      0.777208     5.036940     1.360583
H      1.553660     6.149263     2.497080
