32
Energy = -1142.566397630 Hartree (EUMP2 CORRECTED)
O      1.587110     0.061769    -0.579212
C      0.508191    -0.036368    -1.542169
H      0.493257    -1.070647    -1.901189
H      0.698130     0.642491    -2.382176
C      1.180360     0.973937     0.467627
H      1.127652     0.414252     1.412374
H      1.920253     1.776174     0.555476
C     -0.739972     0.386636    -0.786443
H     -1.097978    -0.426425    -0.140165
H     -1.547936     0.728974    -1.438588
C     -0.182128     1.524421     0.070720
H     -0.818798     1.779799     0.926403
O      0.054346     2.689419    -0.722211
P     -1.328573     3.543012    -1.214987
O     -2.267628     3.600899    -0.031800
O     -1.755764     3.022474    -2.569429
O     -0.596670     5.025701    -1.433431
C      0.779995     5.327513    -1.227049
H      1.252158     4.604158    -0.554306
H      0.830370     6.325344    -0.774440
C      1.509239     5.322676    -2.562486
H      1.117365     6.135519    -3.191730
O      2.919456     5.605855    -2.325466
C      3.705651     4.554143    -2.915533
H      4.636078     5.006003    -3.276532
H      3.948766     3.796998    -2.154764
C      2.821093     3.960192    -4.002952
H      3.132636     2.952582    -4.301377
H      2.831110     4.605763    -4.890765
C      1.457442     3.991962    -3.311559
H      1.370439     3.165643    -2.598334
H      0.597840     3.932910    -3.983706
