32
Energy = -1142.570287064 Hartree (EUMP2 CORRECTED)
O      0.555565    -0.397817     0.564607
C      1.388409     0.203277    -0.454349
H      1.984803    -0.603217    -0.892551
H      2.054454     0.947592     0.000623
C     -0.677510     0.357345     0.638245
H     -1.507766    -0.337215     0.452513
H     -0.780070     0.800135     1.633943
C      0.413503     0.865018    -1.412250
H     -0.066882     0.108962    -2.048684
H      0.835383     1.656705    -2.035691
C     -0.601514     1.446675    -0.429287
H     -1.578567     1.650693    -0.885622
O     -0.078300     2.620961     0.194478
P     -0.326200     4.087717    -0.618948
O     -1.534170     4.749029     0.011930
O     -0.172957     3.873969    -2.104588
O      1.051984     4.846757    -0.071550
C      1.388714     4.746896     1.314990
H      2.299625     4.141581     1.406116
H      0.584892     4.264882     1.887026
C      1.628850     6.139464     1.871039
H      1.896640     6.049090     2.933880
O      2.769318     6.763185     1.234686
C      2.251922     7.619910     0.200394
H      3.045644     8.334230    -0.041920
H      1.995431     7.025546    -0.683567
C      1.012972     8.248609     0.828036
H      0.309792     8.634512     0.081747
H      1.313971     9.074407     1.484563
C      0.426608     7.082073     1.640250
H     -0.357068     6.560469     1.081315
H      0.000243     7.419709     2.591787
