32
Energy = -1142.568974364 Hartree (EUMP2 CORRECTED)
O      1.868708    -0.377750    -0.558476
C      2.428737     0.823941    -1.133221
H      3.060492     0.509626    -1.969276
H      3.025722     1.355819    -0.382526
C      0.818339     0.104269     0.296099
H      0.149123    -0.736247     0.499056
H      1.227072     0.481233     1.242868
C      1.215302     1.660987    -1.528050
H      1.417385     2.732431    -1.485722
H      0.870567     1.383723    -2.531817
C      0.147157     1.255118    -0.482854
H     -0.743294     0.878931    -0.999188
O     -0.378889     2.281415     0.360071
P      0.604548     3.161681     1.413017
O      1.935460     3.389695     0.717403
O      0.490929     2.612838     2.809825
O     -0.288519     4.563249     1.375826
C     -0.259453     5.354600     0.186391
H     -1.287634     5.443716    -0.187979
H      0.367614     4.882482    -0.581693
C      0.295216     6.734720     0.496348
H      0.372470     7.294773    -0.446538
O     -0.593353     7.503398     1.329723
C     -0.297759     7.167960     2.705308
H     -0.488056     8.077141     3.286789
H     -0.970112     6.370474     3.036725
C      1.170588     6.704251     2.747710
H      1.241015     5.702091     3.176385
H      1.789894     7.382259     3.346720
C      1.614061     6.696782     1.271516
H      2.207022     5.811171     1.022223
H      2.190217     7.600112     1.036775
