32
Energy = -1142.567132421 Hartree (EUMP2 CORRECTED)
O      1.470590     0.461344     1.411196
C      1.980997     1.395347     0.435751
H      3.037504     1.152620     0.284304
H      1.884047     2.422920     0.807414
C      0.067832     0.258127     1.133896
H     -0.092445    -0.819921     0.996004
H     -0.532100     0.616832     1.976251
C      1.102542     1.184109    -0.783868
H      1.371499     0.247054    -1.291505
H      1.143213     2.005452    -1.498165
C     -0.279915     1.046499    -0.133568
H     -1.009910     0.532042    -0.771148
O     -0.781143     2.305919     0.298528
P     -1.301771     3.527457    -0.732179
O     -0.337764     4.688002    -0.620371
O     -2.794669     3.659035    -0.557388
O     -1.030318     2.766571    -2.214767
C     -0.236126     3.411110    -3.212050
H      0.479684     2.671683    -3.598224
H      0.309026     4.254837    -2.768286
C     -1.092840     3.894665    -4.369764
H     -0.441370     4.444335    -5.064236
O     -1.634619     2.801143    -5.136060
C     -2.873306     2.405547    -4.502532
H     -3.515356     2.023758    -5.304288
H     -2.671902     1.606340    -3.781487
C     -3.433678     3.653416    -3.797842
H     -3.626023     3.455730    -2.740421
H     -4.361517     3.996314    -4.270775
C     -2.316922     4.706943    -3.939849
H     -2.147642     5.251969    -3.005863
H     -2.558512     5.430839    -4.727426
