32
Energy = -1142.570690079 Hartree (EUMP2 CORRECTED)
O      0.713838    -0.417233     0.914635
C      1.641760     0.260778     0.040876
H      2.416810    -0.465598    -0.223818
H      2.097419     1.112197     0.563333
C     -0.595007     0.181670     0.729986
H     -1.290589    -0.624710     0.463206
H     -0.917936     0.661683     1.658594
C      0.789357     0.737314    -1.124047
H      0.548638    -0.105152    -1.786319
H      1.227728     1.551458    -1.707349
C     -0.460072     1.216306    -0.386539
H     -1.340395     1.271392    -1.034459
O     -0.189322     2.490295     0.198023
P     -1.040699     3.830455    -0.378638
O     -1.948593     4.312595     0.732548
O     -1.503006     3.539701    -1.785717
O      0.253173     4.876491    -0.491498
C      0.840126     5.363089     0.718388
H      1.871373     4.990173     0.771956
H      0.277161     5.011862     1.593433
C      0.842545     6.882076     0.703175
H      1.308958     7.238584     1.632893
O      1.673103     7.390146    -0.367109
C      0.797004     7.667248    -1.475938
H      1.337350     8.351591    -2.138332
H      0.557319     6.738233    -2.004097
C     -0.442681     8.274567    -0.827215
H     -1.333252     8.185091    -1.458783
H     -0.266487     9.337515    -0.621488
C     -0.566684     7.474739     0.481507
H     -1.301519     6.668828     0.399044
H     -0.861030     8.114177     1.321379
