32
Energy = -1142.557705744 Hartree (EUMP2 CORRECTED)
O      1.761041     0.796253    -0.673406
C      2.109595     2.116410    -0.205322
H      3.139889     2.314933    -0.519992
H      2.042425     2.149139     0.890006
C      0.363707     0.802519    -1.064112
H      0.312281     0.692228    -2.158030
H     -0.145048    -0.023259    -0.570845
C      1.073254     3.035821    -0.834020
H      1.302620     3.205295    -1.894897
H      0.958565     3.993805    -0.319735
C     -0.183751     2.177498    -0.689344
H     -0.986050     2.468068    -1.384387
O     -0.645627     2.387829     0.637415
P     -1.336474     1.454359     1.833877
O     -2.826825     1.334905     1.601110
O     -0.746920     1.945108     3.136322
O     -0.641148    -0.031050     1.454976
C     -1.151913    -1.143922     2.196483
H     -1.698253    -1.799828     1.506020
H     -1.847883    -0.814361     2.980447
C      0.001852    -1.901875     2.826340
H     -0.411921    -2.748767     3.394858
O      0.844165    -2.488414     1.805531
C      2.027842    -1.670188     1.704616
H      2.799423    -2.294063     1.240786
H      1.832738    -0.795959     1.075558
C      2.322013    -1.278437     3.146716
H      2.980655    -0.405732     3.224667
H      2.793620    -2.120241     3.670171
C      0.913013    -1.005602     3.691587
H      0.634605     0.045897     3.564130
H      0.821000    -1.253732     4.755324
