32
Energy = -1142.571296769 Hartree (EUMP2 CORRECTED)
O      1.083933    -0.415013     0.206912
C      1.917964     0.588282    -0.407768
H      2.750213     0.060154    -0.883442
H      2.305052     1.279104     0.353355
C     -0.257381     0.126404     0.289709
H     -0.937304    -0.627010    -0.126141
H     -0.516750     0.327110     1.334348
C      0.988980     1.314092    -1.366109
H      0.796235     0.689394    -2.249018
H      1.338971     2.302906    -1.672452
C     -0.276242     1.431360    -0.511489
H     -1.195290     1.553926    -1.096033
O     -0.149895     2.514625     0.416628
P     -0.772120     3.999927    -0.042151
O     -0.629762     4.900979     1.155228
O     -2.052691     3.788305    -0.822210
O      0.437619     4.413034    -1.149616
C      0.090099     4.954200    -2.423283
H     -0.983496     5.160734    -2.487450
H      0.343634     4.204851    -3.193508
C      0.893743     6.222498    -2.693709
H      0.941932     6.382713    -3.779416
O      0.260181     7.399629    -2.164295
C      0.615601     7.477672    -0.761308
H      0.617500     8.543578    -0.510150
H     -0.129112     6.956251    -0.152884
C      1.996064     6.806979    -0.624964
H      1.946101     6.016823     0.126907
H      2.770967     7.526712    -0.335476
C      2.272066     6.222580    -2.023415
H      2.710615     5.220752    -1.975388
H      2.943623     6.875438    -2.594411
