32
Energy = -1142.571896153 Hartree (EUMP2 CORRECTED)
O      1.271819    -0.195637    -0.665699
C      2.048401     0.978899    -1.012309
H      2.870956     0.637934    -1.649387
H      2.442791     1.458637    -0.110690
C     -0.111830     0.195636    -0.557599
H     -0.689640    -0.391039    -1.286949
H     -0.475443    -0.014434     0.453604
C      1.057883     1.893575    -1.710221
H      0.848253     1.526517    -2.724913
H      1.378390     2.935463    -1.767761
C     -0.197247     1.693864    -0.854393
H     -1.115401     1.972330    -1.389593
O     -0.166979     2.372596     0.405367
P      0.497827     3.919843     0.512670
O     -0.163008     4.772133    -0.556385
O      1.993003     3.839666     0.686071
O     -0.142583     4.273248     2.001861
C     -1.546122     4.539204     2.086970
H     -1.985975     3.812393     2.782105
H     -2.019767     4.437717     1.101775
C     -1.774873     5.948223     2.606344
H     -2.855890     6.147771     2.595051
O     -1.370132     6.094390     3.981439
C      0.040675     6.412544     3.987401
H      0.201615     7.062431     4.855027
H      0.619950     5.491228     4.104075
C      0.352287     7.092785     2.640772
H      1.147030     6.555865     2.118014
H      0.669434     8.133173     2.779139
C     -0.970143     7.009744     1.853134
H     -0.812714     6.732583     0.806015
H     -1.508487     7.964157     1.900856
