32
Energy = -1142.569277080 Hartree (EUMP2 CORRECTED)
O      1.039894     0.177623     0.789485
C      1.834761     1.382057     0.721919
H      2.874641     1.084601     0.890301
H      1.519998     2.082994     1.506426
C     -0.124951     0.368489    -0.050628
H     -0.158838    -0.466011    -0.762829
H     -1.030243     0.371030     0.564407
C      1.549031     1.950276    -0.657070
H      2.074660     1.363757    -1.423279
H      1.777977     3.010242    -0.787977
C      0.042003     1.715275    -0.755313
H     -0.324521     1.692217    -1.789095
O     -0.664953     2.690587     0.016182
P     -1.083789     4.108206    -0.782177
O     -2.505752     4.026443    -1.280930
O      0.061910     4.513754    -1.695706
O     -0.995528     5.010272     0.621931
C     -0.952316     6.430983     0.484191
H     -1.857192     6.851074     0.941812
H     -0.911651     6.732644    -0.572361
C      0.280330     6.958543     1.200312
H      0.287799     8.055602     1.123480
O      0.214278     6.667982     2.615751
C      0.974046     5.463607     2.829464
H      1.213069     5.429579     3.897462
H      0.377423     4.589902     2.545253
C      2.188269     5.628598     1.921525
H      2.667332     4.673129     1.679170
H      2.928636     6.272855     2.411760
C      1.588760     6.319075     0.684576
H      1.363596     5.604079    -0.112644
H      2.263950     7.079788     0.276045
