32
Energy = -1142.572035350 Hartree (EUMP2 CORRECTED)
O      0.888469    -0.373267    -0.546273
C      1.568855     0.686206    -1.258748
H      2.126697     0.211607    -2.071995
H      2.262048     1.207220    -0.587100
C     -0.327597     0.177400     0.012025
H     -1.166219    -0.432091    -0.350163
H     -0.284180     0.135057     1.105703
C      0.458037     1.619256    -1.708719
H     -0.085481     1.186547    -2.559511
H      0.800724     2.626567    -1.961198
C     -0.430833     1.624387    -0.463043
H     -1.459191     1.945648    -0.666000
O      0.137342     2.448180     0.558386
P     -0.026872     4.119023     0.344199
O     -1.407602     4.333172    -0.252846
O      1.228234     4.706369    -0.244038
O     -0.060647     4.523201     1.958392
C     -0.866821     3.758278     2.854509
H     -0.204605     3.183080     3.513940
H     -1.516147     3.061087     2.308118
C     -1.732993     4.702046     3.670615
H     -2.353160     4.103634     4.353760
O     -0.926124     5.548981     4.521323
C     -0.757982     6.797746     3.825275
H     -0.460937     7.537520     4.575798
H      0.022178     6.698494     3.062707
C     -2.123156     7.056779     3.197064
H     -2.073297     7.748277     2.348825
H     -2.799743     7.477367     3.951185
C     -2.571663     5.645864     2.779591
H     -2.356700     5.454428     1.723441
H     -3.644763     5.494519     2.943317
