32
Energy = -1142.564569827 Hartree (EUMP2 CORRECTED)
O      1.092517    -0.203592     0.171333
C      1.948503     0.919922    -0.117053
H      2.918662     0.510934    -0.415911
H      2.070249     1.546453     0.776907
C     -0.273704     0.249111     0.006510
H     -0.792341    -0.506170    -0.595943
H     -0.760111     0.346401     0.982836
C      1.211984     1.681889    -1.206001
H      1.298138     1.139266    -2.158720
H      1.549357     2.713797    -1.335487
C     -0.226755     1.620602    -0.681705
H     -0.998323     1.710285    -1.455439
O     -0.415454     2.629080     0.309383
P     -1.331784     3.993203    -0.056173
O     -1.482472     4.743877     1.233654
O     -2.457242     3.558364    -0.976325
O     -0.244535     4.872982    -1.006326
C     -0.262524     4.643725    -2.407232
H     -0.163992     3.579284    -2.664006
H     -1.214706     4.994716    -2.831776
C      0.889766     5.400652    -3.034128
H      0.978321     6.377484    -2.545919
O      2.157188     4.726501    -2.806096
C      2.552485     4.118959    -4.037225
H      3.631631     3.946873    -3.983494
H      2.045047     3.149114    -4.174535
C      2.114050     5.116185    -5.101818
H      2.081248     4.691840    -6.112001
H      2.798086     5.972567    -5.102908
C      0.736401     5.515992    -4.565210
H     -0.024775     4.808174    -4.920000
H      0.421715     6.519190    -4.869842
