32
Energy = -1142.564963332 Hartree (EUMP2 CORRECTED)
O      0.159701    -0.441474     0.299751
C      0.602038    -0.065475    -1.032905
H     -0.123912    -0.478279    -1.745322
H      1.576864    -0.530677    -1.223144
C     -0.024274     0.767614     1.056092
H     -0.825111     0.588698     1.779488
H      0.895234     1.052747     1.586667
C      0.652204     1.461241    -1.077372
H      0.383354     1.860812    -2.057795
H      1.638447     1.850190    -0.804250
C     -0.341874     1.845348     0.025887
H     -1.374445     1.731859    -0.339294
O     -0.232218     3.119043     0.649959
P      0.546352     4.427688    -0.039169
O      2.029321     4.152031    -0.181745
O     -0.012104     5.658357     0.624699
O     -0.136201     4.240143    -1.575787
C      0.639245     4.693256    -2.678401
H      1.523408     4.056543    -2.810265
H      0.982762     5.729317    -2.525393
C     -0.251814     4.637280    -3.904079
H      0.320752     4.975867    -4.779124
O     -0.636941     3.268736    -4.189653
C     -1.983406     3.097002    -3.717633
H     -2.393741     2.225874    -4.238523
H     -1.981356     2.923239    -2.634530
C     -2.664642     4.415615    -4.061400
H     -3.587504     4.580973    -3.494152
H     -2.902200     4.438232    -5.131992
C     -1.564469     5.429487    -3.718921
H     -1.648641     5.748474    -2.675680
H     -1.596342     6.316997    -4.360603
