32
Energy = -1142.554181202 Hartree (EUMP2 CORRECTED)
O      0.867047    -0.188398     0.505481
C      1.879863     0.803202     0.255396
H      2.827026     0.267875     0.135272
H      1.951619     1.500052     1.101164
C     -0.400305     0.372102     0.078640
H     -0.886104    -0.378461    -0.556869
H     -1.028010     0.593183     0.947668
C      1.395159     1.527826    -0.991055
H      1.548252     0.896776    -1.877371
H      1.868872     2.502659    -1.137893
C     -0.097910     1.673137    -0.682266
H     -0.732834     1.756097    -1.567079
O     -0.276503     2.770490     0.202972
P     -1.163551     4.185990    -0.025824
O     -0.211686     5.301341     0.333056
O     -2.536799     3.993253     0.567604
O     -1.476203     4.254482    -1.686446
C     -0.550831     4.007287    -2.731761
H      0.274037     3.359833    -2.426056
H     -0.108597     4.962248    -3.067228
C     -1.317617     3.386497    -3.888639
H     -0.631400     3.239662    -4.735154
O     -1.800103     2.069511    -3.537400
C     -3.184005     2.211509    -3.154158
H     -3.632013     1.215668    -3.226823
H     -3.252727     2.588880    -2.127166
C     -3.729129     3.219599    -4.157865
H     -4.656737     3.694428    -3.820261
H     -3.918333     2.720298    -5.115884
C     -2.564179     4.213996    -4.278227
H     -2.692273     5.037455    -3.570208
H     -2.471819     4.629810    -5.287869
