32
Energy = -1142.574507121 Hartree (EUMP2 CORRECTED)
O      2.129734     1.084270     0.446356
C      1.779450     0.711088    -0.906940
H      2.318466    -0.214872    -1.131846
H      2.098080     1.498573    -1.602291
C      0.983630     1.734116     1.046587
H      0.687895     1.151496     1.929761
H      1.253971     2.751277     1.347610
C      0.266115     0.578616    -0.901759
H     -0.032527    -0.367991    -0.430564
H     -0.202159     0.675060    -1.885112
C     -0.117696     1.758997    -0.008101
H     -1.120322     1.676231     0.432002
O      0.004646     2.988559    -0.725747
P     -1.353676     3.455075    -1.637255
O     -2.477304     3.779473    -0.686979
O     -1.479319     2.489856    -2.798451
O     -0.691411     4.888367    -2.149005
C      0.314303     4.855004    -3.167326
H     -0.112777     5.244754    -4.100353
H      0.647489     3.823451    -3.342747
C      1.497343     5.715250    -2.753164
H      2.310422     5.554357    -3.474276
O      1.192489     7.124278    -2.827447
C      0.549711     7.486598    -1.583995
H      0.820385     8.531230    -1.394690
H     -0.536027     7.402109    -1.696981
C      1.069337     6.508062    -0.512960
H      0.236950     5.989572    -0.032048
H      1.654548     7.025657     0.256442
C      1.935483     5.509145    -1.301817
H      1.780608     4.479976    -0.967483
H      2.998559     5.765105    -1.215332
