32
Energy = -1142.563296661 Hartree (EUMP2 CORRECTED)
O      1.917039    -0.266159    -0.553823
C      2.577095     1.009491    -0.657013
H      3.531614     0.830683    -1.161778
H      2.750920     1.444293     0.335333
C      0.514466     0.012505    -0.319248
H     -0.050003    -0.717745    -0.910246
H      0.274114    -0.093218     0.741337
C      1.587750     1.849133    -1.450248
H      1.745818     2.928591    -1.371899
H      1.609056     1.543669    -2.505155
C      0.248947     1.456865    -0.804905
H     -0.572263     1.482178    -1.530798
O     -0.133974     2.413124     0.187664
P      0.296654     2.437386     1.817163
O      1.668193     3.078322     1.922903
O     -0.058343     1.137127     2.493877
O     -0.866387     3.536649     2.262318
C     -0.723684     4.892794     1.832423
H     -1.563488     5.129406     1.166399
H      0.222641     5.032784     1.292902
C     -0.748404     5.811116     3.042425
H     -0.644290     6.848611     2.693381
O     -2.028343     5.755141     3.713600
C     -1.893291     4.801272     4.784512
H     -2.709412     5.002117     5.486409
H     -1.974088     3.782634     4.390789
C     -0.502732     5.071283     5.351109
H     -0.092733     4.206127     5.883245
H     -0.546640     5.919148     6.045600
C      0.314377     5.430690     4.097036
H      0.909089     4.584388     3.741558
H      0.997193     6.266904     4.285398
