32
Energy = -1142.555581647 Hartree (EUMP2 CORRECTED)
O      0.438575    -0.843575     0.252675
C     -0.530664    -0.766971    -0.819947
H     -0.926891    -1.777618    -0.961193
H     -0.043046    -0.428070    -1.742116
C      0.423298     0.419074     0.960031
H      0.178660     0.213117     2.010966
H      1.410323     0.888775     0.895395
C     -1.551264     0.254850    -0.350364
H     -2.215148    -0.184270     0.406795
H     -2.142029     0.690132    -1.160973
C     -0.634293     1.295203     0.296984
H     -1.153608     1.955960     1.001605
O      0.027055     2.078503    -0.699297
P     -0.931834     3.252669    -1.460994
O     -1.774868     3.935184    -0.409851
O     -1.522202     2.634393    -2.709809
O      0.322841     4.268253    -1.900682
C      1.677824     3.827031    -1.872707
H      2.035786     3.743915    -0.840076
H      1.773877     2.844147    -2.351210
C      2.508057     4.872004    -2.609634
H      1.853692     5.721660    -2.860206
O      3.576922     5.331912    -1.748689
C      4.456404     6.086670    -2.588687
H      4.145284     7.142217    -2.593632
H      5.456273     6.019373    -2.149753
C      4.354106     5.471723    -4.006818
H      5.308778     5.057983    -4.348344
H      4.042601     6.228354    -4.735363
C      3.274869     4.392462    -3.838098
H      3.724902     3.419880    -3.607849
H      2.629801     4.274329    -4.715280
