32
Energy = -1142.570583026 Hartree (EUMP2 CORRECTED)
O      1.564045     0.063817     0.082039
C      1.911881     1.065750    -0.899338
H      2.681079     0.625871    -1.542228
H      2.313617     1.957794    -0.401082
C      0.178056     0.265617     0.452914
H     -0.354574    -0.677144     0.271711
H      0.114394     0.531772     1.512720
C      0.603249     1.385914    -1.600413
H      0.333615     0.575375    -2.291183
H      0.597960     2.343859    -2.125055
C     -0.362935     1.399604    -0.414792
H     -1.408903     1.261575    -0.709269
O     -0.233311     2.608303     0.345144
P     -1.048941     3.963512    -0.192194
O     -1.105977     4.944921     0.951814
O     -2.251380     3.538630    -1.008163
O      0.166320     4.465139    -1.253314
C     -0.089806     5.661725    -1.991437
H     -0.833377     6.294287    -1.490272
H     -0.482741     5.382576    -2.980941
C      1.209365     6.465173    -2.141067
H      1.241166     6.945827    -3.126315
O      1.267315     7.546412    -1.188676
C      1.603663     6.915472     0.071282
H      2.035999     7.700187     0.699531
H      0.698423     6.515978     0.542833
C      2.586520     5.781425    -0.281081
H      2.285913     4.852678     0.209856
H      3.611715     6.026277     0.020664
C      2.472198     5.659129    -1.814089
H      2.406025     4.619304    -2.146430
H      3.325757     6.137992    -2.308930
