32
Energy = -1142.567876025 Hartree (EUMP2 CORRECTED)
O      1.690158    -0.075204    -0.153323
C      1.104639     0.166830    -1.453232
H      1.258890    -0.741887    -2.043448
H      1.606591     1.012620    -1.940090
C      0.951212     0.702305     0.818306
H      0.590372     0.011880     1.592002
H      1.607443     1.454237     1.268817
C     -0.348904     0.499784    -1.166268
H     -0.905906    -0.413640    -0.916778
H     -0.849467     1.039906    -1.974578
C     -0.199435     1.379790     0.077387
H     -1.113512     1.445282     0.681198
O      0.237673     2.695472    -0.274560
P     -0.952754     3.730670    -0.888488
O     -2.119641     3.769224     0.064380
O     -1.100496     3.436698    -2.371287
O     -0.078890     5.130798    -0.703409
C      1.166347     5.221109    -1.406101
H      1.261324     4.398792    -2.122970
H      1.974930     5.130496    -0.669686
C      1.285897     6.553136    -2.180173
H      2.078302     7.176118    -1.749169
O      1.699798     6.313277    -3.542442
C      0.500469     5.930964    -4.263196
H      0.632982     6.297497    -5.286294
H      0.406021     4.839015    -4.274206
C     -0.688921     6.566138    -3.515709
H     -1.350094     5.777305    -3.148783
H     -1.264161     7.244106    -4.156631
C     -0.028714     7.308999    -2.342048
H     -0.639949     7.295104    -1.437252
H      0.203819     8.346010    -2.614451
