32
Energy = -1142.572814519 Hartree (EUMP2 CORRECTED)
O      1.814323    -0.152174     0.268817
C      2.517541     1.091424     0.353477
H      3.540140     0.918103     0.005474
H      2.541314     1.445085     1.396625
C      0.421378     0.208707     0.459755
H     -0.187149    -0.576661     0.012637
H      0.197082     0.276667     1.528582
C      1.691245     2.027742    -0.519490
H      1.924552     1.842291    -1.574471
H      1.824906     3.091378    -0.300275
C      0.252266     1.597070    -0.201198
H     -0.359838     1.519998    -1.110550
O     -0.328174     2.583278     0.656761
P     -1.867644     2.317374     1.284800
O     -1.954341     3.176957     2.522734
O     -2.199068     0.847530     1.211386
O     -2.781824     3.026995     0.069927
C     -2.825042     4.454968     0.004327
H     -2.464151     4.762995    -0.986403
H     -2.188624     4.898490     0.781335
C     -4.253120     4.937065     0.193593
H     -4.249290     6.036462     0.199332
O     -5.103779     4.559697    -0.907140
C     -5.612200     3.234105    -0.631891
H     -6.619720     3.200034    -1.062190
H     -4.975720     2.492145    -1.124226
C     -5.588656     3.051547     0.897460
H     -4.990727     2.178051     1.166592
H     -6.598774     2.919742     1.303164
C     -4.935121     4.342622     1.427381
H     -4.218656     4.146198     2.231033
H     -5.699309     5.044187     1.783762
