32
Energy = -1142.572958994 Hartree (EUMP2 CORRECTED)
O      0.278516     0.030954     1.345267
C      1.345112     0.897733     0.896211
H      2.285778     0.385808     1.122638
H      1.305495     1.852979     1.435335
C     -0.870257     0.261901     0.493853
H     -1.160973    -0.703591     0.059157
H     -1.695726     0.665591     1.088879
C      1.074658     1.105891    -0.583373
H      1.351207     0.206426    -1.150380
H      1.571550     1.981082    -1.008612
C     -0.447014     1.262579    -0.579154
H     -0.899920     1.068107    -1.557398
O     -0.840943     2.561642    -0.118437
P     -0.714842     3.837566    -1.196291
O     -1.554112     4.967809    -0.653149
O     -0.822337     3.281882    -2.600491
O      0.911046     4.216661    -0.968150
C      1.290553     5.512198    -0.509873
H      2.108023     5.355097     0.207107
H      0.454607     6.014645    -0.007158
C      1.799137     6.358575    -1.673751
H      2.375235     7.198074    -1.253749
O      2.717406     5.626669    -2.504237
C      1.974209     5.197242    -3.664831
H      2.714096     4.958974    -4.436112
H      1.370919     4.314803    -3.425601
C      1.088884     6.394627    -3.993686
H      0.234092     6.122604    -4.622014
H      1.679225     7.163278    -4.508499
C      0.665743     6.867448    -2.593474
H     -0.289214     6.419217    -2.302526
H      0.559247     7.956199    -2.530382
