32
Energy = -1142.559842992 Hartree (EUMP2 CORRECTED)
O      0.764601    -0.638618     0.491034
C     -0.237023    -0.711899    -0.550912
H     -0.524330    -1.764427    -0.639760
H      0.183152    -0.361118    -1.501580
C      0.642976     0.651397     1.136138
H      0.468304     0.475649     2.206177
H      1.568770     1.220264     1.000675
C     -1.348135     0.212982    -0.086313
H     -1.933900    -0.261803     0.712624
H     -2.009367     0.544710    -0.891448
C     -0.530717     1.375176     0.482934
H     -1.095246     2.002608     1.183510
O      0.001796     2.185389    -0.567476
P     -1.109314     3.212541    -1.335876
O     -1.984582     3.858950    -0.290276
O     -1.662449     2.463997    -2.530876
O      0.008585     4.336609    -1.862339
C      1.338452     3.908411    -2.158866
H      1.926140     3.849988    -1.235758
H      1.339245     2.921069    -2.636611
C      1.942655     4.959396    -3.078922
H      1.384845     5.900185    -2.950760
O      3.326946     5.159244    -2.697664
C      3.973864     5.839484    -3.783642
H      4.043411     6.912968    -3.556006
H      4.988269     5.433866    -3.856931
C      3.121821     5.582445    -5.047875
H      3.717736     5.193635    -5.880625
H      2.643806     6.508471    -5.386635
C      2.068379     4.588177    -4.550492
H      2.436103     3.557749    -4.617053
H      1.114497     4.650003    -5.084535
