32
Energy = -1142.570335187 Hartree (EUMP2 CORRECTED)
O      1.814060     0.523693     0.370420
C      2.143763     1.480966    -0.663333
H      2.961067     1.046193    -1.247404
H      2.473340     2.423983    -0.209808
C      0.404259     0.657915     0.667880
H     -0.065022    -0.323287     0.515922
H      0.274461     0.972036     1.708814
C      0.850011     1.682472    -1.432406
H      0.655763     0.821352    -2.086495
H      0.817550     2.611133    -2.008855
C     -0.160934     1.709552    -0.283189
H     -1.189918     1.491623    -0.596486
O     -0.121725     2.965960     0.400800
P     -0.926181     4.241461    -0.370820
O     -2.335097     3.788880    -0.693420
O      0.002555     4.847462    -1.396347
O     -0.929014     5.208094     0.985650
C     -2.163690     5.650686     1.547956
H     -2.967173     4.939255     1.328124
H     -2.428247     6.629603     1.115458
C     -1.984306     5.801682     3.049294
H     -2.841849     6.363857     3.444303
O     -1.999623     4.541067     3.738303
C     -0.659679     3.998022     3.671012
H     -0.530433     3.400659     4.580279
H     -0.563933     3.361785     2.787104
C      0.296412     5.204105     3.586549
H      0.943460     5.105396     2.712478
H      0.922709     5.289403     4.482427
C     -0.637854     6.421845     3.439379
H     -0.278095     7.130882     2.687073
H     -0.747215     6.946643     4.396058
