32
Energy = -1142.572999340 Hartree (EUMP2 CORRECTED)
O      1.337858    -0.001112    -0.834750
C      1.837326     1.253448    -1.350820
H      2.482107     1.009963    -2.200913
H      2.419328     1.773420    -0.579605
C      0.048353     0.252910    -0.226968
H     -0.673282    -0.436431    -0.684723
H      0.104234     0.070404     0.851333
C      0.586623     2.040452    -1.702956
H      0.139200     1.651721    -2.627698
H      0.737593     3.118958    -1.796852
C     -0.303557     1.714346    -0.503358
H     -1.365761     1.878510    -0.712277
O      0.105311     2.476033     0.634189
P     -0.517287     4.035671     0.825456
O     -1.586432     4.207717    -0.240048
O      0.612935     4.996637     1.062194
O     -1.272615     3.822660     2.300902
C     -2.297954     2.833542     2.386412
H     -1.965337     2.044330     3.074057
H     -2.503279     2.391008     1.401804
C     -3.578173     3.467115     2.904428
H     -4.374800     2.709958     2.881197
O     -3.470447     3.869958     4.282714
C     -2.893073     5.195344     4.302123
H     -3.318117     5.698639     5.177762
H     -1.807031     5.116831     4.412085
C     -3.264955     5.862850     2.964717
H     -2.366805     6.212026     2.450655
H     -3.934607     6.717928     3.114577
C     -3.952721     4.747200     2.153044
H     -3.607195     4.723211     1.114502
H     -5.042569     4.868634     2.173547
