32
Energy = -1142.565307065 Hartree (EUMP2 CORRECTED)
O      1.628014     0.293821     0.168612
C      1.954697     1.448561    -0.638358
H      2.832466     1.179534    -1.234502
H      2.193639     2.303346     0.007384
C      0.199415     0.311921     0.408038
H     -0.204501    -0.651857     0.071368
H      0.004722     0.443880     1.477278
C      0.697024     1.720837    -1.444181
H      0.596768     0.980352    -2.249664
H      0.636856     2.731051    -1.856023
C     -0.380817     1.481082    -0.385847
H     -1.366325     1.268490    -0.813963
O     -0.479283     2.593743     0.513873
P     -1.412426     3.895566     0.042835
O     -1.688483     4.740840     1.261230
O     -2.485642     3.416372    -0.912344
O     -0.196512     4.661423    -0.856622
C     -0.461541     6.015730    -1.187300
H     -1.289485     6.092939    -1.910715
H     -0.736347     6.570447    -0.277473
C      0.786570     6.626353    -1.787954
H      1.653501     6.269326    -1.220115
O      1.002564     6.192086    -3.156935
C      0.705381     7.294442    -4.015770
H      1.218611     7.114599    -4.965174
H     -0.378811     7.360702    -4.205206
C      1.196191     8.512567    -3.243542
H      0.795655     9.460583    -3.621150
H      2.290819     8.553561    -3.283432
C      0.712133     8.166481    -1.832661
H     -0.327496     8.495094    -1.701494
H      1.306762     8.626710    -1.037416
