32
Energy = -1142.572195537 Hartree (EUMP2 CORRECTED)
O      1.514417    -0.000793    -0.127585
C      2.183607     1.210303     0.290921
H      3.257956     1.031462     0.182637
H      1.948416     1.424361     1.341390
C      0.218360     0.368955    -0.658191
H      0.146437    -0.042756    -1.673225
H     -0.573360    -0.051485    -0.029928
C      1.622788     2.289302    -0.619247
H      2.061860     2.204690    -1.622618
H      1.739146     3.313340    -0.257725
C      0.148065     1.895610    -0.657220
H     -0.382980     2.296113    -1.527682
O     -0.506188     2.292657     0.554142
P     -1.142921     3.834677     0.606509
O     -0.452899     4.711187    -0.417386
O     -1.297262     4.220318     2.058906
O     -2.653527     3.383446     0.014598
C     -3.617753     4.427230    -0.131177
H     -3.838783     4.551598    -1.199355
H     -3.240875     5.383402     0.260683
C     -4.882934     4.043671     0.616752
H     -5.629905     4.838642     0.474737
O     -5.469594     2.850490     0.042355
C     -5.067531     1.746412     0.873137
H     -5.763057     0.926621     0.664914
H     -4.042533     1.446957     0.626169
C     -5.155048     2.301363     2.289392
H     -4.563661     1.724125     3.008763
H     -6.202026     2.303810     2.617688
C     -4.625610     3.732470     2.107560
H     -3.553795     3.789126     2.323924
H     -5.143849     4.447886     2.756403
