32
Energy = -1142.563075918 Hartree (EUMP2 CORRECTED)
O      1.403707    -0.648203    -0.559529
C      1.997710     0.404958    -1.350439
H      2.425096    -0.067840    -2.239489
H      2.782184     0.916049    -0.777927
C      0.599914     0.053614     0.402239
H     -0.152488    -0.647136     0.774998
H      1.217975     0.411532     1.237792
C      0.843694     1.360005    -1.625519
H      0.236683     0.975408    -2.454933
H      1.182502     2.372531    -1.842333
C      0.010458     1.283590    -0.325326
H     -1.041340     1.103583    -0.579131
O     -0.051358     2.398102     0.563266
P      1.122794     3.574365     0.838101
O      2.253048     3.381648    -0.154530
O      1.310415     3.702084     2.323484
O      0.223445     4.909396     0.377360
C     -0.112871     5.039702    -0.998762
H     -0.979876     4.406017    -1.234940
H      0.737676     4.742530    -1.631545
C     -0.445888     6.495235    -1.272321
H     -0.657921     6.610289    -2.344349
O     -1.654107     6.900417    -0.591971
C     -1.245417     7.501910     0.650806
H     -2.094890     8.092972     1.007556
H     -0.990814     6.722866     1.377059
C     -0.022609     8.331732     0.271502
H      0.623144     8.546397     1.129914
H     -0.345212     9.282740    -0.169156
C      0.668645     7.448402    -0.781986
H      1.478842     6.866599    -0.334155
H      1.080551     8.040736    -1.606589
