32
Energy = -1142.568055954 Hartree (EUMP2 CORRECTED)
O      2.338752     1.186695     0.978053
C      2.240267     2.419335     0.234674
H      3.247352     2.653639    -0.123607
H      1.878598     3.228014     0.882695
C      1.041251     0.546509     0.930722
H      1.202251    -0.492327     0.616942
H      0.573563     0.569514     1.920407
C      1.227372     2.120289    -0.857885
H      1.683315     1.496406    -1.638870
H      0.790243     3.018026    -1.302869
C      0.180577     1.325429    -0.068841
H     -0.429851     0.668823    -0.698329
O     -0.649269     2.208272     0.678734
P     -1.972365     2.986657    -0.020832
O     -1.536367     4.380642    -0.426143
O     -3.174855     2.689238     0.832983
O     -2.133157     2.081475    -1.431230
C     -1.722292     2.597066    -2.694896
H     -1.029829     1.874133    -3.149273
H     -1.222920     3.567197    -2.570851
C     -2.938016     2.761846    -3.592225
H     -2.599681     3.114090    -4.577746
O     -3.577420     1.486906    -3.829537
C     -4.667710     1.388333    -2.890913
H     -5.343844     0.618901    -3.277685
H     -4.288065     1.103245    -1.904166
C     -5.263289     2.791083    -2.867257
H     -5.837669     2.987122    -1.955856
H     -5.919327     2.928918    -3.735615
C     -4.014865     3.682253    -2.975056
H     -3.694555     4.036331    -1.991900
H     -4.191064     4.561517    -3.604887
