32
Energy = -1142.565639305 Hartree (EUMP2 CORRECTED)
O      1.152372     0.556983     1.339724
C      1.743850     0.804715     0.047122
H      2.397357    -0.045845    -0.171043
H      2.345702     1.722774     0.080929
C     -0.144118     1.203653     1.368203
H     -0.882269     0.444367     1.655844
H     -0.139065     2.013924     2.104349
C      0.562248     0.956811    -0.895529
H      0.135261    -0.028916    -1.124724
H      0.768910     1.482424    -1.830709
C     -0.409564     1.759364    -0.031980
H     -1.451254     1.632261    -0.345159
O     -0.060933     3.147329    -0.016752
P     -0.714174     4.117837    -1.248585
O     -1.663815     5.104075    -0.610703
O     -1.097959     3.208637    -2.393289
O      0.667711     4.964968    -1.654892
C      1.956900     4.830667    -1.073618
H      2.682531     4.880378    -1.896156
H      2.059812     3.869181    -0.555553
C      2.240036     5.966298    -0.099311
H      3.271194     5.850176     0.267940
O      2.207211     7.237797    -0.784861
C      0.905085     7.807182    -0.535139
H      0.985179     8.876310    -0.757426
H      0.156916     7.335421    -1.180518
C      0.640243     7.486245     0.929768
H     -0.425316     7.518795     1.178356
H      1.183210     8.194130     1.568866
C      1.217514     6.067736     1.055350
H      0.422794     5.329322     0.938530
H      1.699489     5.898790     2.025376
