32
Energy = -1142.574122945 Hartree (EUMP2 CORRECTED)
O      1.413311     0.224173     0.270322
C      1.768314     1.343887    -0.568428
H      2.578650     1.007697    -1.223624
H      2.117455     2.181400     0.050174
C      0.003611     0.338890     0.600643
H     -0.487046    -0.590997     0.285090
H     -0.117615     0.476018     1.678651
C      0.478775     1.706099    -1.287653
H      0.271951     0.972832    -2.079422
H      0.452247     2.709706    -1.718150
C     -0.531341     1.555783    -0.154519
H     -1.559337     1.399729    -0.496055
O     -0.449151     2.710824     0.690222
P     -1.910794     3.477119     1.023570
O     -1.561372     4.741313     1.764123
O     -2.917087     2.437673     1.452165
O     -2.352273     3.865325    -0.560508
C     -1.658985     4.964534    -1.149578
H     -0.572733     4.842521    -1.043500
H     -1.946584     5.904406    -0.654983
C     -2.024770     5.010460    -2.620646
H     -1.555980     5.894970    -3.074277
O     -1.467714     3.870825    -3.321765
C     -2.528333     2.915921    -3.484874
H     -2.223829     2.235230    -4.286341
H     -2.679235     2.359233    -2.552019
C     -3.742380     3.775105    -3.816242
H     -4.692558     3.252902    -3.657390
H     -3.689122     4.095893    -4.863692
C     -3.550254     4.965700    -2.865263
H     -4.064706     4.783735    -1.917508
H     -3.919975     5.905323    -3.290613
