32
Energy = -1142.569221053 Hartree (EUMP2 CORRECTED)
O      1.175943    -0.185483     0.184521
C      1.887754     1.044175    -0.060812
H      2.909938     0.768872    -0.338555
H      1.904186     1.662391     0.846757
C     -0.231255     0.075799    -0.043285
H     -0.604814    -0.716806    -0.702844
H     -0.776297     0.058672     0.905820
C      1.088369     1.725440    -1.159239
H      1.273125     1.225348    -2.120353
H      1.269974     2.797723    -1.257720
C     -0.340627     1.466503    -0.681322
H     -1.089069     1.487405    -1.482188
O     -0.677110     2.402875     0.341270
P     -1.684792     3.684497    -0.052083
O     -1.455305     4.749109     0.984484
O     -3.046916     3.146480    -0.442378
O     -0.917847     4.094059    -1.510425
C     -1.763331     4.666336    -2.508502
H     -2.182348     5.619696    -2.158557
H     -2.594700     3.981644    -2.731271
C     -0.941142     4.913968    -3.759204
H     -1.618174     5.262662    -4.551077
O      0.011067     5.984932    -3.568862
C      1.262085     5.370486    -3.224347
H      2.040996     6.120623    -3.393206
H      1.251925     5.070085    -2.170317
C      1.342951     4.164190    -4.155639
H      2.037886     3.394801    -3.801072
H      1.667969     4.492729    -5.150068
C     -0.116608     3.679118    -4.192738
H     -0.275586     2.864017    -3.482159
H     -0.408840     3.330566    -5.189538
