32
Energy = -1142.574983752 Hartree (EUMP2 CORRECTED)
O      1.327929     0.080704     0.704795
C      1.890412     1.041740    -0.212299
H      2.763048     0.569902    -0.674411
H      2.207997     1.941503     0.333030
C     -0.089340     0.363012     0.821146
H     -0.623612    -0.576833     0.634239
H     -0.315160     0.725839     1.829085
C      0.755721     1.357567    -1.171068
H      0.609824     0.510125    -1.855568
H      0.889745     2.268163    -1.757329
C     -0.432009     1.440348    -0.212041
H     -1.395490     1.261522    -0.702786
O     -0.486186     2.696623     0.481883
P     -1.415546     3.922323    -0.209664
O     -1.431814     5.027262     0.815196
O     -2.618842     3.310693    -0.883339
O     -0.407437     4.392018    -1.478971
C      0.887567     4.872457    -1.124666
H      1.462396     4.098401    -0.600628
H      0.799236     5.744430    -0.457834
C      1.591474     5.268154    -2.408305
H      2.584608     5.668848    -2.161919
O      1.832698     4.105552    -3.239287
C      0.801782     4.082650    -4.242399
H      1.163399     3.441010    -5.052201
H     -0.123960     3.675546    -3.818347
C      0.636295     5.547826    -4.627035
H     -0.317860     5.752481    -5.125310
H      1.452342     5.846409    -5.296240
C      0.758176     6.247792    -3.265194
H     -0.228141     6.378235    -2.811224
H      1.240428     7.228648    -3.341477
