32
Energy = -1142.555512343 Hartree (EUMP2 CORRECTED)
O      1.333649    -0.230505    -0.186953
C      1.775531     0.815068    -1.072656
H      2.511679     0.367245    -1.748113
H      2.256342     1.617973    -0.496969
C      0.008536     0.128816     0.280346
H     -0.619859    -0.762796     0.171881
H      0.050307     0.428758     1.332902
C      0.502358     1.301043    -1.745507
H      0.184316     0.574733    -2.505147
H      0.559725     2.290050    -2.207529
C     -0.484033     1.301759    -0.575256
H     -1.517525     1.180167    -0.912729
O     -0.370176     2.489961     0.214218
P     -1.245327     3.851789    -0.311540
O     -1.917495     4.422876     0.909790
O     -1.961608     3.477157    -1.588456
O      0.026643     4.869712    -0.736369
C      1.371901     4.668668    -0.352746
H      1.642771     5.375788     0.449499
H      1.515419     3.650009     0.025353
C      2.297267     4.900369    -1.534365
H      1.836015     4.470608    -2.430563
O      2.471603     6.314241    -1.821322
C      3.788173     6.685151    -1.410347
H      4.055137     7.594223    -1.957634
H      3.814904     6.901459    -0.329103
C      4.640526     5.466114    -1.738034
H      5.613938     5.463361    -1.233867
H      4.805508     5.415618    -2.820448
C      3.711628     4.341533    -1.273387
H      3.850540     4.159744    -0.198695
H      3.878059     3.392249    -1.792263
