32
Energy = -1142.568091119 Hartree (EUMP2 CORRECTED)
O      0.965092    -0.199059     0.251193
C      1.654309     0.826057    -0.490487
H      2.545564     0.359208    -0.922172
H      1.957819     1.638766     0.183608
C     -0.432571     0.181993     0.317122
H     -1.018584    -0.699245     0.030177
H     -0.690293     0.485667     1.337367
C      0.629312     1.310569    -1.502418
H      0.514266     0.565256    -2.300961
H      0.837024     2.288989    -1.943146
C     -0.635682     1.358567    -0.642287
H     -1.550943     1.276858    -1.237394
O     -0.685241     2.552336     0.147450
P     -1.291348     3.947643    -0.599093
O     -1.742683     4.835635     0.530712
O     -2.110288     3.534369    -1.796295
O      0.140755     4.580992    -1.226981
C      1.161573     4.894832    -0.275670
H      1.385493     4.031650     0.364722
H      0.836323     5.725424     0.362339
C      2.381380     5.314201    -1.077060
H      2.042481     5.871676    -1.962771
O      3.184054     6.192524    -0.237847
C      4.581082     5.998183    -0.523149
H      5.028102     6.967654    -0.774919
H      5.067942     5.615320     0.384119
C      4.652546     4.984653    -1.667571
H      5.552869     4.361568    -1.622370
H      4.640158     5.495065    -2.638146
C      3.353428     4.207889    -1.466005
H      3.450274     3.500630    -0.632936
H      3.025556     3.656959    -2.353512
