32
Energy = -1142.567990322 Hartree (EUMP2 CORRECTED)
O      1.328797     0.212970     0.876444
C      1.945452     1.302257     0.157504
H      2.927934     0.949809    -0.171831
H      2.066334     2.170685     0.818659
C     -0.107018     0.357896     0.745896
H     -0.499342    -0.596039     0.370847
H     -0.550120     0.585591     1.720255
C      0.971511     1.611921    -0.966149
H      1.034942     0.839521    -1.744864
H      1.108377     2.587968    -1.431307
C     -0.363536     1.511097    -0.230967
H     -1.210916     1.297856    -0.893743
O     -0.614320     2.684682     0.540978
P     -1.593081     3.901486    -0.097701
O     -1.016775     5.218756     0.356631
O     -3.030251     3.471656     0.067759
O     -1.268879     3.695576    -1.746022
C     -0.419084     4.649862    -2.378670
H      0.609321     4.586284    -1.997972
H     -0.779135     5.671005    -2.189631
C     -0.433597     4.357035    -3.866450
H      0.177188     5.112147    -4.380961
O      0.201326     3.084073    -4.144782
C     -0.847870     2.123739    -4.344703
H     -0.407420     1.278853    -4.883952
H     -1.241707     1.790462    -3.376802
C     -1.902284     2.892530    -5.131457
H     -2.892282     2.424782    -5.090002
H     -1.593345     2.968380    -6.181132
C     -1.863682     4.265272    -4.444226
H     -2.588544     4.302336    -3.625880
H     -2.073724     5.086851    -5.137940
