32
Energy = -1142.575194374 Hartree (EUMP2 CORRECTED)
O      0.995849    -0.269379    -0.832669
C      1.725469     0.871381    -1.338585
H      2.361776     0.503620    -2.149484
H      2.347906     1.303737    -0.545118
C     -0.257928     0.213402    -0.292237
H     -1.064181    -0.358927    -0.768892
H     -0.280734     0.056232     0.791442
C      0.647509     1.852451    -1.767367
H      0.189977     1.527324    -2.711508
H      0.994476     2.885859    -1.858130
C     -0.346101     1.703995    -0.613301
H     -1.361133     2.031826    -0.865781
O      0.119105     2.421096     0.533373
P     -0.241533     4.072375     0.582638
O     -1.630657     4.234755    -0.009710
O      0.950033     4.879744     0.138573
O     -0.319929     4.201077     2.237264
C     -1.432999     3.603352     2.907553
H     -1.043437     2.861320     3.616642
H     -2.099052     3.108286     2.188513
C     -2.216283     4.667234     3.657538
H     -3.102416     4.192901     4.102845
O     -1.472875     5.211444     4.765104
C     -0.658249     6.290838     4.252704
H     -0.580774     7.023936     5.063591
H      0.336793     5.908397     4.004618
C     -1.369453     6.831598     2.997758
H     -0.699257     6.797027     2.135922
H     -1.701369     7.867129     3.137788
C     -2.566407     5.881763     2.794801
H     -2.704550     5.607459     1.744246
H     -3.488667     6.335629     3.177488
