32
Energy = -1142.571149706 Hartree (EUMP2 CORRECTED)
O     -0.088330    -0.192640     1.295086
C      1.068659     0.580141     0.905622
H      1.949214    -0.019205     1.158054
H      1.094573     1.525791     1.462796
C     -1.178982     0.163295     0.410173
H     -1.547076    -0.762813    -0.050351
H     -1.980969     0.637928     0.984498
C      0.877010     0.836403    -0.578971
H      1.093938    -0.075017    -1.152590
H      1.464013     1.670999    -0.969450
C     -0.623004     1.133899    -0.629835
H     -1.053167     0.994803    -1.627535
O     -0.910140     2.458479    -0.165357
P     -0.665062     3.728091    -1.236381
O     -1.402906     4.918710    -0.678792
O     -0.799395     3.190996    -2.642556
O      0.987299     3.976999    -1.012255
C      1.438026     5.103070    -0.258468
H      2.296269     4.779160     0.343533
H      0.633135     5.440336     0.404640
C      1.886227     6.270404    -1.154099
H      1.629032     7.226469    -0.685732
O      3.335968     6.281490    -1.273021
C      3.635433     5.229642    -2.211362
H      4.618665     5.458576    -2.634445
H      3.689292     4.267764    -1.682145
C      2.486054     5.222823    -3.237657
H      2.065873     4.221666    -3.358535
H      2.819789     5.587638    -4.215761
C      1.441462     6.163733    -2.612817
H      0.420210     5.794806    -2.726983
H      1.503809     7.163996    -3.058162
