32
Energy = -1142.563021183 Hartree (EUMP2 CORRECTED)
O      0.969419    -0.511672    -0.423488
C      0.497005    -0.023926    -1.686299
H     -0.381625    -0.612019    -2.009860
H      1.304060    -0.159790    -2.411566
C      0.055107     0.018963     0.560128
H     -0.787437    -0.683015     0.672187
H      0.596726     0.130389     1.499898
C      0.138846     1.429995    -1.415503
H     -0.571937     1.848931    -2.137566
H      1.040936     2.043885    -1.406521
C     -0.450400     1.373963     0.007886
H     -1.546426     1.347178    -0.047556
O     -0.200896     2.537773     0.796632
P      1.249163     2.930222     1.552333
O      1.720657     1.773105     2.409887
O      1.049087     4.335600     2.047099
O      2.268414     3.009227     0.212184
C      3.309746     2.039460     0.077194
H      2.899315     1.058757    -0.194490
H      3.860538     1.928549     1.021521
C      4.233404     2.542527    -1.014040
H      5.054364     1.823474    -1.145433
O      3.538243     2.584250    -2.287972
C      3.188322     3.956064    -2.536776
H      3.002553     4.045735    -3.612112
H      2.285844     4.222233    -1.972730
C      4.396397     4.738706    -2.038158
H      4.175711     5.796788    -1.857650
H      5.208676     4.668956    -2.772206
C      4.745799     3.975890    -0.753180
H      4.207541     4.401971     0.098763
H      5.819369     3.989248    -0.534186
