32
Energy = -1142.559746284 Hartree (EUMP2 CORRECTED)
O      1.813797     0.106328    -1.100181
C      1.002191     0.441200    -2.254035
H      1.098299    -0.388416    -2.961902
H      1.375620     1.364088    -2.713674
C      1.156965     0.624255     0.079844
H      0.899258    -0.223749     0.730091
H      1.838409     1.299337     0.608487
C     -0.400063     0.646397    -1.706702
H     -0.881845    -0.320069    -1.504265
H     -1.036924     1.258311    -2.351499
C     -0.087320     1.364667    -0.392238
H     -0.909582     1.338353     0.333721
O      0.295007     2.717165    -0.642076
P     -0.980043     3.799110    -0.967122
O     -2.011587     3.583404     0.120304
O     -1.321547     3.747139    -2.436195
O     -0.109777     5.194919    -0.674895
C      1.135663     5.173368     0.001893
H      1.246274     6.166146     0.463184
H      1.150989     4.413093     0.794244
C      2.313731     4.950828    -0.931912
H      2.150070     4.046733    -1.523273
O      2.427306     6.046714    -1.883389
C      3.537031     6.855295    -1.499657
H      3.858358     7.408899    -2.387400
H      3.248061     7.579233    -0.718109
C      4.557105     5.860965    -0.962112
H      5.350167     6.323781    -0.362605
H      5.017705     5.321575    -1.797556
C      3.646041     4.934484    -0.153738
H      3.497005     5.341964     0.856481
H      4.039904     3.918690    -0.045044
