32
Energy = -1142.573207147 Hartree (EUMP2 CORRECTED)
O      0.014226    -0.210761    -0.453053
C      1.100331     0.547010     0.129177
H      2.008395    -0.049803    -0.002525
H      0.913314     0.704394     1.198997
C     -0.966538     0.729426    -0.952812
H     -1.111930     0.524405    -2.022006
H     -1.911367     0.590799    -0.418773
C      1.091975     1.867259    -0.620775
H      1.517283     1.736819    -1.625354
H      1.595962     2.694913    -0.117574
C     -0.409286     2.132927    -0.717833
H     -0.668868     2.832313    -1.521184
O     -0.920061     2.594817     0.537346
P     -0.820221     4.249427     0.857127
O      0.261569     4.826747    -0.023595
O     -0.891740     4.400620     2.358089
O     -2.305420     4.681683     0.205429
C     -3.307066     5.300396     1.011016
H     -3.706763     6.142180     0.430973
H     -2.874549     5.670142     1.949875
C     -4.438845     4.331630     1.319830
H     -5.222656     4.882883     1.860637
O     -5.061516     3.869157     0.096990
C     -4.495975     2.577506    -0.190703
H     -5.175486     2.086324    -0.895326
H     -3.503797     2.697504    -0.639765
C     -4.405388     1.902222     1.172271
H     -3.684935     1.077900     1.192309
H     -5.392356     1.515078     1.455179
C     -3.984266     3.066730     2.081480
H     -2.902672     3.082261     2.233357
H     -4.458193     3.010193     3.068162
