32
Energy = -1142.566351948 Hartree (EUMP2 CORRECTED)
O      2.132956     0.779172     1.076648
C      2.298686     1.916299     0.205088
H      3.333318     1.893749    -0.150792
H      2.115021     2.848389     0.755222
C      0.728630     0.419291     1.064029
H      0.671811    -0.657164     0.860830
H      0.273898     0.642125     2.034270
C      1.246705     1.717585    -0.874430
H      1.563947     0.928996    -1.570394
H      1.002894     2.627755    -1.429799
C      0.055989     1.253191    -0.030793
H     -0.677865     0.675195    -0.601491
O     -0.561211     2.377461     0.584779
P     -1.948345     3.113540    -0.032739
O     -1.556965     4.496941    -0.506391
O     -3.087381     2.830778     0.911051
O     -2.216019     2.149957    -1.386991
C     -1.828533     2.593784    -2.686156
H     -1.195774     1.815531    -3.136452
H     -1.270344     3.537542    -2.620962
C     -3.067829     2.791244    -3.543927
H     -2.749382     3.081818    -4.555826
O     -3.784965     1.545526    -3.700792
C     -4.840964     1.547953    -2.718633
H     -5.573119     0.802641    -3.046125
H     -4.438718     1.282773    -1.735278
C     -5.357130     2.981941    -2.734068
H     -5.882531     3.247919    -1.810872
H     -6.039785     3.120080    -3.581617
C     -4.067373     3.796264    -2.929045
H     -3.686744     4.175848    -1.977398
H     -4.221169     4.655106    -3.592077
