32
Energy = -1142.569936115 Hartree (EUMP2 CORRECTED)
O      0.381201    -0.375164     0.061343
C      1.654011     0.199482     0.396459
H      2.388042    -0.612653     0.376543
H      1.624238     0.644778     1.401069
C     -0.454189     0.695842    -0.462516
H     -0.923622     0.319175    -1.378128
H     -1.227657     0.964924     0.259756
C      1.859888     1.271776    -0.662044
H      2.113337     0.805718    -1.622669
H      2.617103     2.019653    -0.408078
C      0.467285     1.894515    -0.729641
H      0.266931     2.372427    -1.693205
O      0.390041     2.860778     0.332125
P     -0.858937     3.983637     0.222986
O     -0.850740     4.724012     1.534011
O     -2.064883     3.328442    -0.409890
O     -0.247092     4.987618    -0.990316
C      1.138752     5.201016    -1.202614
H      1.733924     4.368699    -0.810995
H      1.462097     6.127580    -0.696191
C      1.355391     5.334412    -2.700845
H      2.415531     5.555704    -2.892063
O      1.088201     4.075034    -3.360564
C     -0.240057     4.157469    -3.914155
H     -0.307135     3.382680    -4.684564
H     -0.986664     3.981443    -3.130640
C     -0.314134     5.581500    -4.450945
H     -1.342753     5.923718    -4.610067
H      0.227760     5.644972    -5.402500
C      0.412727     6.372159    -3.352765
H     -0.301806     6.734307    -2.608293
H      0.968451     7.228669    -3.751022
