32
Energy = -1142.568884560 Hartree (EUMP2 CORRECTED)
O      1.563210     0.149180     0.154694
C      1.762877     1.421396    -0.505408
H      2.612931     1.295105    -1.183060
H      1.987929     2.201173     0.232347
C      0.160424     0.041995     0.488373
H     -0.210548    -0.899890     0.062131
H      0.034642     0.033122     1.576167
C      0.439941     1.708886    -1.192904
H      0.328772     1.078009    -2.086113
H      0.301793     2.762455    -1.449153
C     -0.546552     1.258602    -0.112850
H     -1.532586     1.000890    -0.519941
O     -0.685609     2.218974     0.933422
P     -1.336507     3.747308     0.603264
O     -0.265197     4.594269    -0.040104
O     -2.150611     4.132096     1.809994
O     -2.358411     3.321921    -0.669052
C     -3.696745     2.932340    -0.365997
H     -4.145286     3.629087     0.349639
H     -3.713616     1.921225     0.079420
C     -4.481856     2.921902    -1.665945
H     -5.485372     2.522077    -1.464597
O     -4.688257     4.261721    -2.160230
C     -3.635433     4.521677    -3.106262
H     -3.957869     5.377303    -3.707522
H     -2.705943     4.756638    -2.577031
C     -3.522683     3.216442    -3.888687
H     -2.552966     3.103235    -4.385980
H     -4.311286     3.173928    -4.649380
C     -3.758456     2.154653    -2.799694
H     -2.806457     1.760564    -2.434284
H     -4.362481     1.317295    -3.166958
