32
Energy = -1142.556275416 Hartree (EUMP2 CORRECTED)
O      0.991852    -0.409382     0.208098
C      1.856793     0.674719    -0.184188
H      2.790020     0.223894    -0.535933
H      2.061883     1.328860     0.674208
C     -0.371536     0.072663     0.112964
H     -0.943395    -0.686254    -0.434073
H     -0.793226     0.208559     1.114344
C      1.063811     1.419231    -1.245091
H      1.066119     0.849902    -2.184898
H      1.399721     2.443281    -1.423235
C     -0.333978     1.419743    -0.618217
H     -1.147289     1.520536    -1.346737
O     -0.430896     2.456996     0.360241
P     -1.125953     3.911858    -0.122424
O     -1.171625     4.762236     1.113156
O     -2.301686     3.611818    -1.031817
O      0.134295     4.468436    -1.109552
C     -0.114115     4.717439    -2.484756
H      0.170583     3.831508    -3.078639
H     -1.184428     4.882102    -2.646077
C      0.704565     5.947890    -2.966561
H      0.037704     6.643298    -3.490048
O      1.296428     6.707760    -1.914406
C      2.525084     6.048109    -1.542168
H      3.268187     6.838825    -1.385662
H      2.362977     5.497595    -0.611305
C      2.888728     5.113633    -2.715406
H      2.708136     4.070529    -2.436678
H      3.938295     5.205848    -3.016907
C      1.906733     5.542222    -3.817538
H      1.685952     4.745556    -4.536491
H      2.286550     6.415247    -4.362207
