32
Energy = -1142.562107557 Hartree (EUMP2 CORRECTED)
O      1.508127     0.560211    -0.800722
C      2.030070     1.879358    -1.106927
H      2.710597     1.773521    -1.960571
H      2.562835     2.252511    -0.228037
C      0.088109     0.652648    -0.590895
H     -0.429905     0.239994    -1.473506
H     -0.173258     0.065257     0.287205
C      0.806603     2.737842    -1.412545
H      0.957012     3.798398    -1.191334
H      0.501061     2.623096    -2.462301
C     -0.266456     2.136356    -0.493072
H     -1.277638     2.307990    -0.884501
O     -0.265905     2.775372     0.781996
P      0.635403     2.481125     2.174146
O     -0.175542     3.089924     3.290783
O      2.089700     2.779995     1.901200
O      0.545766     0.811037     2.285687
C     -0.607726     0.239645     2.897605
H     -1.481126     0.322943     2.232565
H     -0.840082     0.760032     3.837073
C     -0.292281    -1.222753     3.149331
H     -1.153095    -1.694392     3.644325
O     -0.121166    -1.927736     1.896471
C      1.298879    -2.041100     1.662874
H      1.431769    -2.852156     0.939819
H      1.689658    -1.104366     1.250527
C      1.867517    -2.334099     3.045728
H      2.940073    -2.121870     3.117064
H      1.700871    -3.388609     3.298534
C      1.021144    -1.415496     3.940140
H      1.513959    -0.447572     4.067810
H      0.837197    -1.848677     4.929798
