32
Energy = -1142.572797826 Hartree (EUMP2 CORRECTED)
O     -0.170848    -0.198696    -0.033175
C      0.986871     0.551232     0.404247
H      1.840512    -0.132994     0.365976
H      0.837235     0.899451     1.433785
C     -1.070384     0.715956    -0.704579
H     -1.218505     0.350573    -1.729982
H     -2.029892     0.736824    -0.178839
C      1.070264     1.726167    -0.555188
H      1.471759     1.401773    -1.524977
H      1.648470     2.578371    -0.190867
C     -0.407407     2.090366    -0.689857
H     -0.621356     2.683568    -1.585222
O     -0.855270     2.771613     0.484749
P     -0.629243     4.443798     0.564218
O      0.194846     4.850377    -0.633992
O     -0.287540     4.778943     1.997880
O     -2.223849     4.872128     0.283353
C     -2.962517     5.627305     1.242713
H     -3.494489     6.411370     0.688779
H     -2.287720     6.084766     1.977918
C     -3.978748     4.749986     1.959736
H     -4.576974     5.392228     2.623159
O     -4.918957     4.181366     1.018235
C     -4.445340     2.855620     0.713320
H     -5.294149     2.310858     0.286182
H     -3.624560     2.910840    -0.009591
C     -3.962124     2.313507     2.053786
H     -3.234183     1.503269     1.942904
H     -4.818647     1.943872     2.631391
C     -3.346176     3.558540     2.713240
H     -2.259204     3.573003     2.605852
H     -3.575623     3.607301     3.784006
