32
Energy = -1142.567545651 Hartree (EUMP2 CORRECTED)
O      0.060807    -0.789927    -0.210332
C      0.631842    -0.022907    -1.289226
H      0.542842    -0.634342    -2.192586
H      1.684839     0.197789    -1.077877
C     -0.145090     0.153717     0.861930
H     -1.000955    -0.212679     1.438842
H      0.747504     0.216095     1.489835
C     -0.208006     1.247244    -1.300242
H     -1.177764     1.035119    -1.768898
H      0.270314     2.094072    -1.796962
C     -0.417795     1.527726     0.200201
H     -1.444281     1.857926     0.392386
O      0.364641     2.609296     0.731305
P      2.026906     2.689092     0.725144
O      2.652818     1.328428     0.950976
O      2.400550     3.912172     1.526382
O      2.178512     3.050616    -0.917481
C      3.505296     3.079906    -1.444449
H      3.605882     2.270991    -2.181024
H      4.256777     2.923654    -0.657151
C      3.737667     4.420831    -2.117630
H      4.742967     4.423477    -2.564632
O      2.816131     4.591685    -3.223408
C      1.761638     5.455151    -2.762858
H      1.278722     5.866380    -3.655550
H      1.038735     4.880864    -2.171286
C      2.480052     6.485843    -1.902099
H      1.807344     7.010215    -1.214344
H      2.969655     7.225628    -2.547986
C      3.510887     5.616430    -1.167585
H      3.113974     5.266279    -0.208634
H      4.446279     6.154709    -0.976079
