32
Energy = -1142.568250161 Hartree (EUMP2 CORRECTED)
O      1.012939    -0.316432    -1.578630
C      2.011973     0.720471    -1.700004
H      2.622641     0.473600    -2.573407
H      2.629546     0.750226    -0.794273
C      0.072333     0.225994    -0.636109
H     -0.862464    -0.330420    -0.752717
H      0.451729     0.129010     0.388866
C      1.198435     2.004158    -1.839162
H      1.727115     2.906685    -1.520165
H      0.886299     2.132775    -2.882677
C     -0.050168     1.729246    -0.966943
H     -0.960902     1.925577    -1.544276
O     -0.222704     2.498507     0.227960
P      1.114435     3.101637     1.058719
O      1.554471     4.390677     0.390210
O      2.069331     1.971020     1.356136
O      0.297619     3.463264     2.456689
C     -0.615074     4.565009     2.446773
H     -1.621431     4.172251     2.640103
H     -0.600318     5.073728     1.473865
C     -0.228181     5.552380     3.534426
H     -0.948406     6.383166     3.520067
O     -0.351084     4.955346     4.846294
C      0.960034     4.485385     5.212639
H      0.952937     4.354466     6.299719
H      1.167244     3.530671     4.717563
C      1.898292     5.583139     4.721752
H      2.922135     5.223916     4.571243
H      1.919630     6.401684     5.451621
C      1.234165     6.034407     3.409018
H      1.705558     5.576255     2.534857
H      1.279934     7.122193     3.284254
