32
Energy = -1142.572991274 Hartree (EUMP2 CORRECTED)
O      1.237237    -0.306069     0.572413
C      1.855686     0.458876    -0.473990
H      2.593976    -0.191434    -0.954573
H      2.360420     1.342366    -0.058754
C     -0.095445     0.241064     0.796226
H     -0.798725    -0.599654     0.751832
H     -0.151144     0.724564     1.773414
C      0.697313     0.873041    -1.367979
H      0.356368     0.013099    -1.958913
H      0.912932     1.716145    -2.030693
C     -0.352187     1.254489    -0.328889
H     -1.379880     1.192082    -0.712414
O     -0.074409     2.602265     0.060665
P     -1.194318     3.360774     1.076385
O     -1.155490     2.672231     2.428948
O     -2.473736     3.606228     0.318264
O     -0.375633     4.800778     1.166697
C      0.802458     4.862478     1.977496
H      1.638938     5.164515     1.333911
H      1.016926     3.882751     2.423730
C      0.615298     5.884389     3.085528
H      1.507137     5.862065     3.727781
O      0.539037     7.230816     2.577661
C     -0.840766     7.485665     2.227722
H     -1.009830     8.552001     2.415988
H     -0.991453     7.270291     1.165181
C     -1.704286     6.559739     3.105357
H     -2.347867     5.935307     2.481608
H     -2.337973     7.132341     3.792865
C     -0.683805     5.695242     3.871707
H     -0.981471     4.642924     3.916290
H     -0.541838     6.077181     4.889995
