32
Energy = -1142.573299096 Hartree (EUMP2 CORRECTED)
O      1.509039     0.126251    -1.064035
C      1.974782     1.460533    -1.367730
H      2.677003     1.366745    -2.201857
H      2.486793     1.888850    -0.496903
C      0.179457     0.240497    -0.502045
H     -0.483220    -0.408623    -1.089281
H      0.188975    -0.085642     0.543214
C      0.708580     2.237914    -1.683560
H      0.331925     1.964393    -2.678500
H      0.811149     3.324158    -1.620086
C     -0.229328     1.710503    -0.597189
H     -1.285580     1.854183    -0.847831
O      0.074591     2.319581     0.659208
P     -0.590107     3.835053     0.997177
O     -1.565072     4.150421    -0.123909
O      0.506999     4.753991     1.456572
O     -1.459291     3.435800     2.366004
C     -2.671963     2.698006     2.213280
H     -2.574977     1.757552     2.772626
H     -2.866339     2.478306     1.154558
C     -3.837329     3.502240     2.765312
H     -4.764965     2.944162     2.573671
O     -3.765599     3.652345     4.195776
C     -2.942783     4.809848     4.471073
H     -3.343592     5.255185     5.388692
H     -1.909620     4.489244     4.636704
C     -3.042549     5.733237     3.242118
H     -2.048218     5.938007     2.839120
H     -3.519380     6.688033     3.493459
C     -3.886592     4.934763     2.229269
H     -3.487236     5.001364     1.212370
H     -4.927371     5.280950     2.235220
