32
Energy = -1142.570746443 Hartree (EUMP2 CORRECTED)
O      0.540306    -0.376414     0.251419
C      1.706748     0.446801     0.063272
H      2.529953    -0.224684    -0.198876
H      1.948771     0.985433     0.989842
C     -0.614584     0.475856     0.057817
H     -1.316480    -0.075427    -0.578185
H     -1.083074     0.704141     1.021101
C      1.299785     1.420516    -1.030814
H      1.293361     0.910862    -2.003708
H      1.924096     2.315816    -1.084204
C     -0.123767     1.778112    -0.591784
H     -0.781410     2.095718    -1.408681
O     -0.069640     2.790525     0.413088
P     -0.505922     4.361503     0.001220
O     -0.431608     5.161558     1.267297
O     -1.707794     4.274544    -0.923677
O      0.807871     4.837395    -0.946896
C      0.793122     4.617557    -2.357189
H     -0.108906     4.075861    -2.665580
H      1.682921     4.039580    -2.639133
C      0.811760     5.968986    -3.057352
H      1.763695     6.476697    -2.858049
O      0.756208     5.755275    -4.497301
C     -0.558710     6.132401    -4.934860
H     -0.488436     6.352033    -6.004968
H     -1.267792     5.304096    -4.782061
C     -0.918261     7.319629    -4.055046
H     -1.991661     7.540883    -4.047946
H     -0.379328     8.209560    -4.403527
C     -0.398707     6.846241    -2.692535
H     -1.150266     6.239890    -2.175152
H     -0.120002     7.668657    -2.027274
