32
Energy = -1142.572325295 Hartree (EUMP2 CORRECTED)
O      1.187704    -0.252311     0.122842
C      1.605341     0.521841    -1.018097
H      2.201368    -0.139565    -1.655875
H      2.220606     1.371422    -0.693810
C     -0.107691     0.241759     0.561879
H     -0.815697    -0.596781     0.523073
H     -0.043307     0.614056     1.585164
C      0.308315     1.006549    -1.647611
H     -0.173110     0.188210    -2.199221
H      0.423882     1.876068    -2.300646
C     -0.504182     1.357784    -0.404325
H     -1.585459     1.377293    -0.585059
O     -0.036541     2.632293     0.042816
P     -1.085811     3.503795     1.044373
O     -1.768945     2.486396     1.942173
O     -1.827416     4.539623     0.244052
O      0.090996     4.304854     1.903902
C      0.933305     3.550447     2.777205
H      1.961529     3.609615     2.397879
H      0.620222     2.498599     2.812892
C      0.861419     4.133086     4.178471
H      1.506317     3.533304     4.836273
O      1.404939     5.471512     4.221273
C      0.296929     6.374173     4.039865
H      0.625493     7.349793     4.413145
H      0.040297     6.442148     2.977907
C     -0.837981     5.749541     4.848537
H     -1.823778     6.046933     4.475441
H     -0.757010     6.056174     5.898346
C     -0.588579     4.236195     4.699653
H     -1.278865     3.774964     3.987586
H     -0.695120     3.717731     5.659247
