32
Energy = -1142.553948948 Hartree (EUMP2 CORRECTED)
O      0.160238    -0.939469     0.484913
C     -0.293010    -0.663554    -0.865197
H     -1.365664    -0.902002    -0.931982
H      0.255053    -1.327075    -1.541847
C      0.321227     0.317498     1.183386
H     -0.164155     0.239173     2.161142
H      1.386530     0.540681     1.325103
C     -0.022590     0.814449    -1.112562
H     -0.672252     1.245425    -1.882343
H      1.011267     0.979861    -1.408627
C     -0.317399     1.373718     0.281078
H     -1.409299     1.325062     0.420036
O      0.018750     2.689460     0.660587
P      1.270164     3.733814     0.240309
O      2.330493     3.655397     1.317235
O      0.613282     5.007674    -0.219439
O      1.892996     2.988289    -1.134587
C      3.161414     2.341975    -1.054877
H      3.050348     1.306381    -0.697417
H      3.820431     2.872443    -0.355874
C      3.744784     2.331731    -2.453992
H      4.727010     1.839132    -2.428557
O      2.922828     1.527246    -3.337847
C      2.115534     2.435868    -4.107179
H      1.774413     1.885518    -4.990102
H      1.257369     2.770725    -3.512301
C      3.057198     3.594010    -4.411854
H      2.528697     4.508540    -4.702802
H      3.740393     3.309328    -5.221460
C      3.808760     3.741501    -3.081106
H      3.292392     4.453518    -2.430514
H      4.842936     4.076483    -3.217504
