32
Energy = -1142.555920153 Hartree (EUMP2 CORRECTED)
O      1.347952     0.276949     1.401973
C      2.273251     1.225816     0.844203
H      3.275690     0.800522     0.955787
H      2.213877     2.181458     1.382121
C      0.069101     0.470251     0.742925
H     -0.263960    -0.512990     0.388380
H     -0.664176     0.881905     1.442032
C      1.814103     1.396681    -0.596805
H      2.094158     0.514012    -1.187351
H      2.198903     2.301237    -1.076009
C      0.299772     1.460795    -0.409501
H     -0.278082     1.158447    -1.286022
O     -0.035563     2.780039     0.017549
P     -1.437175     3.552628    -0.526766
O     -1.161570     5.023499    -0.337655
O     -2.632516     2.815488     0.025207
O     -1.463182     3.251241    -2.189497
C     -0.436011     2.781961    -3.039706
H     -0.663418     1.757467    -3.368633
H      0.546233     2.797076    -2.547324
C     -0.358263     3.698887    -4.252015
H      0.456204     3.353278    -4.906229
O     -1.563157     3.607664    -5.043738
C     -2.388658     4.731294    -4.679899
H     -3.111324     4.864913    -5.491198
H     -2.908103     4.522826    -3.738217
C     -1.396855     5.877399    -4.525044
H     -1.793619     6.704072    -3.926173
H     -1.118801     6.259032    -5.515399
C     -0.207334     5.181968    -3.844869
H     -0.282945     5.285730    -2.757299
H      0.754960     5.591795    -4.172527
