32
Energy = -1142.563627489 Hartree (EUMP2 CORRECTED)
O      1.555351     0.289210     0.160154
C      2.026829     1.533553    -0.403478
H      2.990918     1.321903    -0.876599
H      2.160534     2.279857     0.390660
C      0.107520     0.337544     0.180079
H     -0.257734    -0.563100    -0.330086
H     -0.250137     0.350464     1.214745
C      0.927911     1.958991    -1.360942
H      0.960063     1.339320    -2.267803
H      0.953252     3.014214    -1.638993
C     -0.318122     1.617601    -0.541028
H     -1.219470     1.483025    -1.149712
O     -0.562698     2.612311     0.460898
P     -1.548804     3.904548     0.060190
O     -1.854445     4.623897     1.344569
O     -2.588591     3.438786    -0.941413
O     -0.405029     4.809864    -0.805616
C     -0.825253     5.369048    -2.043491
H     -1.304843     4.617368    -2.683887
H     -1.557855     6.170552    -1.854437
C      0.392869     5.952253    -2.739676
H      1.128130     6.217719    -1.970659
O      1.048124     4.975724    -3.597547
C      0.913241     5.411057    -4.953261
H      1.736308     4.967932    -5.522088
H     -0.041824     5.061767    -5.379531
C      0.941394     6.932107    -4.868661
H      0.563909     7.425070    -5.772161
H      1.967581     7.271898    -4.685816
C      0.062910     7.157587    -3.636651
H     -0.996460     7.134930    -3.925651
H      0.247951     8.106302    -3.123359
