32
Energy = -1142.563362728 Hartree (EUMP2 CORRECTED)
O      1.323185     0.025284     0.212203
C      2.097344     1.163129    -0.225964
H      3.037202     0.768941    -0.624053
H      2.304226     1.829470     0.621910
C     -0.072082     0.410533     0.178484
H     -0.614721    -0.382609    -0.351395
H     -0.457165     0.507046     1.199229
C      1.203366     1.845521    -1.246087
H      1.191065     1.266497    -2.179363
H      1.445709     2.888571    -1.463472
C     -0.152580     1.759664    -0.544739
H     -0.976666     1.822007    -1.259162
O     -0.235868     2.791704     0.443953
P     -1.116082     4.183014     0.084957
O     -0.868951     4.484858    -1.379416
O     -0.912352     5.145183     1.219966
O     -2.712380     3.653939     0.217675
C     -3.197132     2.352358    -0.031509
H     -2.619300     1.596013     0.516605
H     -3.168164     2.119050    -1.111303
C     -4.642175     2.296755     0.439477
H     -5.086294     1.353641     0.092016
O     -4.747591     2.270892     1.871241
C     -4.694592     3.642131     2.333132
H     -5.294797     3.675032     3.248761
H     -3.659047     3.914812     2.554694
C     -5.259770     4.510163     1.192404
H     -4.543017     5.289860     0.927680
H     -6.208260     4.981654     1.475209
C     -5.451571     3.527773     0.019531
H     -5.098952     3.944493    -0.929133
H     -6.506287     3.247532    -0.087812
