32
Energy = -1142.574903106 Hartree (EUMP2 CORRECTED)
O     -0.016780     0.323347     1.266692
C      1.147812     1.160863     1.063479
H      2.027422     0.536671     1.252059
H      1.129922     1.997553     1.772252
C     -1.031069     0.715096     0.311254
H     -1.221784    -0.136080    -0.357762
H     -1.949528     0.978695     0.845292
C      1.027597     1.668075    -0.364386
H      1.327905     0.890711    -1.080277
H      1.596121     2.583162    -0.552350
C     -0.480395     1.911341    -0.450940
H     -0.856001     1.989902    -1.477975
O     -0.839510     3.076792     0.291404
P     -0.504738     4.567510    -0.433740
O     -0.768993     4.420174    -1.913117
O      0.797579     5.109036     0.123501
O     -1.779060     5.336477     0.307564
C     -1.566145     6.454491     1.170264
H     -2.317692     7.207635     0.902737
H     -0.558519     6.866939     1.030152
C     -1.757269     6.051354     2.626405
H     -1.661099     6.955924     3.245234
O     -3.097602     5.564135     2.855943
C     -3.041303     4.126953     2.734927
H     -3.935629     3.739617     3.234856
H     -3.039466     3.840300     1.678863
C     -1.730346     3.736455     3.411372
H     -1.335882     2.790440     3.026982
H     -1.883001     3.646221     4.494147
C     -0.805157     4.923643     3.084664
H     -0.094617     4.677930     2.291989
H     -0.230392     5.238090     3.963754
