32
Energy = -1142.564511469 Hartree (EUMP2 CORRECTED)
O      1.170086    -0.770370    -0.208874
C      1.452174     0.161647    -1.267986
H      1.710327    -0.429837    -2.151864
H      2.290977     0.806753    -0.980789
C      0.524070     0.016565     0.812889
H     -0.087443    -0.678691     1.396966
H      1.268142     0.503509     1.446317
C      0.156246     0.955580    -1.392302
H      0.272240     1.950398    -1.832965
H     -0.566348     0.384709    -1.988788
C     -0.329870     1.077246     0.072296
H     -1.395721     0.836690     0.146170
O     -0.259495     2.415988     0.562981
P      1.107939     3.275602     1.001599
O      2.325018     2.369005     0.983125
O      0.710216     4.144418     2.163246
O      1.212242     4.290986    -0.335717
C      2.276571     4.154447    -1.274969
H      1.837257     4.121578    -2.282154
H      2.839554     3.231393    -1.083932
C      3.221401     5.342065    -1.189063
H      4.060804     5.162197    -1.876199
O      2.606245     6.562585    -1.642554
C      1.908067     7.139600    -0.513525
H      1.949122     8.225495    -0.655667
H      0.865957     6.805209    -0.523020
C      2.628953     6.652545     0.756755
H      1.927783     6.155802     1.431801
H      3.105104     7.483729     1.290426
C      3.680586     5.651163     0.237932
H      3.738312     4.748483     0.854482
H      4.674103     6.114263     0.199254
