32
Energy = -1142.570724820 Hartree (EUMP2 CORRECTED)
O      1.854495     1.074144     1.067587
C      2.221219     1.762947    -0.147463
H      3.176721     1.341993    -0.477293
H      2.348847     2.833569     0.059351
C      0.407903     0.993878     1.122684
H      0.136119    -0.068383     1.183584
H      0.045055     1.522350     2.009257
C      1.060186     1.516675    -1.095780
H      1.107828     0.490084    -1.484625
H      0.971324     2.205582    -1.937558
C     -0.131581     1.645353    -0.150454
H     -1.022651     1.136176    -0.535422
O     -0.436210     3.004661     0.171543
P     -1.439568     3.880010    -0.890615
O     -2.716098     4.225584    -0.176079
O     -1.353062     3.173644    -2.228650
O     -0.545513     5.287816    -0.939131
C      0.798262     5.271745    -1.404725
H      0.832122     5.707141    -2.412321
H      1.192643     4.250134    -1.454072
C      1.657426     6.094054    -0.458502
H      2.696164     6.067827    -0.819375
O      1.269049     7.486975    -0.491081
C      0.399746     7.702021     0.636761
H      0.375674     8.782283     0.812618
H     -0.605770     7.330469     0.410362
C      1.050738     6.897884     1.755831
H      0.356117     6.664649     2.570253
H      1.897994     7.460133     2.167469
C      1.531722     5.640191     1.013759
H      0.800233     4.831767     1.092781
H      2.489336     5.275117     1.402514
