32
Energy = -1142.574374277 Hartree (EUMP2 CORRECTED)
O      0.493097    -0.289753     0.612891
C      1.762837     0.383230     0.660728
H      2.535026    -0.391713     0.709090
H      1.825017     1.021710     1.552726
C     -0.450639     0.588733    -0.063447
H     -0.927318     0.001600    -0.858014
H     -1.209887     0.946512     0.635059
C      1.785428     1.225413    -0.605308
H      1.960977     0.586149    -1.480088
H      2.515212     2.040303    -0.594918
C      0.357996     1.765167    -0.622464
H      0.028618     2.066516    -1.623138
O      0.326836     2.889540     0.267413
P     -0.952305     3.968560     0.060015
O     -0.655566     5.123773     0.980045
O     -2.248126     3.199827    -0.020085
O     -0.637367     4.425370    -1.532173
C      0.620578     5.038794    -1.798732
H      1.437732     4.455691    -1.354018
H      0.649035     6.055668    -1.376010
C      0.785731     5.085734    -3.305552
H      1.736215     5.582233    -3.547024
O      0.893722     3.743654    -3.841775
C     -0.389920     3.401628    -4.391659
H     -0.225948     2.572361    -5.087102
H     -1.072920     3.096030    -3.589648
C     -0.857621     4.692881    -5.051098
H     -1.936730     4.710185    -5.240589
H     -0.331438     4.830721    -6.003548
C     -0.415974     5.742636    -4.021664
H     -1.214780     5.924725    -3.297082
H     -0.139397     6.696153    -4.485300
