32
Energy = -1142.570371489 Hartree (EUMP2 CORRECTED)
O      2.275832     0.716196     0.081110
C      2.442613     2.137206    -0.084189
H      3.419706     2.289959    -0.553302
H      2.416525     2.641559     0.890997
C      0.851779     0.438454     0.103406
H      0.667617    -0.372777    -0.611841
H      0.543116     0.126634     1.105482
C      1.252954     2.549716    -0.935921
H      1.408772     2.226591    -1.973758
H      1.020037     3.617702    -0.910024
C      0.133868     1.737168    -0.284065
H     -0.710309     1.564576    -0.958718
O     -0.271121     2.438596     0.888471
P     -1.886319     2.437230     1.346205
O     -2.635855     3.479223     0.541229
O     -1.912128     2.350989     2.848976
O     -2.313341     0.926741     0.722533
C     -3.303978     0.820555    -0.300420
H     -2.903852     0.159426    -1.082757
H     -3.515022     1.811974    -0.721984
C     -4.584289     0.211106     0.244741
H     -5.333437     0.217327    -0.560009
O     -4.417256    -1.173450     0.605193
C     -3.925579    -1.209111     1.965616
H     -4.320775    -2.131300     2.406293
H     -2.831498    -1.246582     1.954538
C     -4.424486     0.072633     2.656651
H     -3.591050     0.632632     3.087822
H     -5.145006    -0.156065     3.450805
C     -5.086452     0.883992     1.524668
H     -4.821382     1.945348     1.563534
H     -6.178674     0.795051     1.567997
