32
Energy = -1142.569231707 Hartree (EUMP2 CORRECTED)
O      0.705033    -0.380211    -0.336614
C      1.444173     0.583999    -1.122837
H      1.950265     0.023550    -1.915025
H      2.186063     1.091947    -0.494725
C     -0.463229     0.284433     0.198463
H     -1.347329    -0.281630    -0.124121
H     -0.411280     0.296348     1.292602
C      0.394024     1.566976    -1.610543
H     -0.194646     1.126763    -2.426728
H      0.802360     2.531217    -1.925622
C     -0.469312     1.706618    -0.355031
H     -1.474547     2.092275    -0.560620
O      0.177784     2.541064     0.609585
P      0.131647     4.204410     0.300553
O     -1.237976     4.484811    -0.295440
O      1.413334     4.653951    -0.350043
O      0.157899     4.722147     1.884062
C     -0.393771     3.973468     2.964192
H      0.420823     3.731217     3.659288
H     -0.843845     3.037545     2.610228
C     -1.444609     4.806505     3.678837
H     -1.848147     4.213564     4.513304
O     -0.848168     5.977344     4.286178
C     -1.105544     7.082430     3.401141
H     -0.970896     7.995468     3.990124
H     -0.397649     7.064326     2.564554
C     -2.532893     6.843628     2.925267
H     -2.770832     7.385553     2.003366
H     -3.236682     7.152890     3.708212
C     -2.550454     5.319825     2.729844
H     -2.311489     5.064066     1.692075
H     -3.523895     4.882223     2.980267
