32
Energy = -1142.566732096 Hartree (EUMP2 CORRECTED)
O      1.372979    -0.724076    -0.695164
C      2.040352     0.344144    -1.404223
H      2.429352    -0.088039    -2.331064
H      2.858728     0.740815    -0.792371
C      0.604795    -0.043657     0.310160
H     -0.152375    -0.743412     0.674243
H      1.247346     0.272615     1.141413
C      0.965751     1.412260    -1.599857
H      1.381715     2.420340    -1.587551
H      0.424602     1.249486    -2.540027
C      0.012323     1.190600    -0.398161
H     -0.989161     0.947127    -0.771190
O     -0.224533     2.295626     0.471437
P      1.012459     3.036849     1.351467
O      2.322558     2.730159     0.649446
O      0.773276     2.822133     2.820141
O      0.579459     4.616732     1.031447
C      0.738746     5.098317    -0.299252
H     -0.139361     4.825463    -0.900771
H      1.642602     4.667228    -0.755405
C      0.884541     6.608153    -0.244318
H      1.053059     6.980232    -1.264456
O     -0.333238     7.243268     0.204110
C     -0.193882     7.448212     1.622384
H     -0.934668     8.203116     1.904576
H     -0.382743     6.510668     2.155910
C      1.253557     7.901463     1.786875
H      1.632153     7.741103     2.802204
H      1.334325     8.968898     1.548670
C      1.992536     7.050562     0.739227
H      2.447969     6.170030     1.200465
H      2.777167     7.619796     0.228594
