32
Energy = -1142.569079381 Hartree (EUMP2 CORRECTED)
O      2.128067     0.609957     0.399592
C      1.307980    -0.008155    -0.621396
H      1.453883    -1.089479    -0.533717
H      1.631554     0.328946    -1.613776
C      1.458042     1.811168     0.847563
H      1.268583     1.711631     1.925230
H      2.100459     2.678979     0.664749
C     -0.105199     0.466081    -0.330636
H     -0.525967    -0.080645     0.524298
H     -0.777596     0.400812    -1.190458
C      0.158882     1.922695     0.056936
H     -0.656498     2.379718     0.631989
O      0.433500     2.712800    -1.102466
P     -0.924808     3.165325    -2.022120
O     -1.950931     3.757173    -1.083869
O     -1.230263     2.033248    -2.978024
O     -0.199871     4.426993    -2.826484
C      1.191431     4.466840    -3.137247
H      1.720945     3.594377    -2.736072
H      1.292930     4.480284    -4.230929
C      1.785330     5.741257    -2.558866
H      2.836721     5.808290    -2.876552
O      1.132479     6.907598    -3.107037
C      0.178108     7.352157    -2.123900
H     -0.063739     8.391263    -2.369342
H     -0.722098     6.729119    -2.166802
C      0.912065     7.172541    -0.800675
H      0.234644     7.146907     0.059927
H      1.628823     7.991735    -0.662492
C      1.634141     5.835322    -1.023841
H      1.028387     5.001594    -0.660568
H      2.608498     5.795401    -0.523085
