32
Energy = -1142.560119791 Hartree (EUMP2 CORRECTED)
O     -0.790885     0.689593    -1.500953
C      0.176009     1.669918    -1.935430
H      0.037261     1.778569    -3.016447
H      1.187672     1.320039    -1.717781
C     -1.121953     0.953363    -0.125661
H     -2.211215     0.845103    -0.043630
H     -0.642417     0.233583     0.541122
C     -0.170150     2.926325    -1.144542
H      0.677557     3.600347    -0.988531
H     -0.976792     3.473089    -1.650748
C     -0.676240     2.394170     0.211515
H     -1.532001     2.983855     0.559566
O      0.271102     2.540196     1.261481
P      1.681488     1.701563     1.597780
O      1.486706     0.928207     2.883216
O      2.836121     2.646263     1.360789
O      1.672036     0.612780     0.323293
C      1.774129    -0.793768     0.523437
H      1.447552    -1.062422     1.538070
H      1.114352    -1.261013    -0.219767
C      3.202290    -1.264688     0.289237
H      3.210161    -2.364328     0.326816
O      3.636870    -0.912090    -1.042669
C      4.401309     0.306247    -0.921911
H      5.006300     0.383619    -1.831547
H      3.731670     1.167530    -0.832429
C      5.210911     0.118757     0.355405
H      5.516818     1.074265     0.792591
H      6.102360    -0.486120     0.146991
C      4.228911    -0.641912     1.261960
H      3.737887     0.035122     1.964512
H      4.731680    -1.419604     1.848523
