32
Energy = -1142.562085547 Hartree (EUMP2 CORRECTED)
O      1.807037     0.674533    -0.908467
C      2.343446     2.000377    -0.819964
H      3.102084     2.104875    -1.601203
H      2.809949     2.150101     0.166383
C      0.655766     0.713959    -0.029940
H      0.026271    -0.141270    -0.275643
H      0.990555     0.645657     1.011347
C      1.121062     2.896708    -0.987971
H      0.897553     3.021194    -2.053782
H      1.216208     3.882357    -0.523249
C      0.004569     2.097103    -0.287537
H     -0.858288     1.978151    -0.960271
O     -0.442109     2.816310     0.857313
P     -0.999308     2.160125     2.306173
O     -2.325206     2.816646     2.605750
O      0.161369     2.075198     3.265072
O     -1.266884     0.566368     1.824837
C     -2.521265     0.236982     1.230563
H     -2.481772     0.399125     0.142131
H     -3.319220     0.864025     1.651574
C     -2.787518    -1.228915     1.511905
H     -3.749712    -1.510439     1.060903
O     -1.790706    -2.058546     0.865315
C     -0.840857    -2.444162     1.875372
H     -0.314608    -3.324899     1.494052
H     -0.131852    -1.627666     2.055543
C     -1.702117    -2.706227     3.104383
H     -1.128753    -2.692752     4.037898
H     -2.194120    -3.681919     3.008008
C     -2.723487    -1.563077     3.018168
H     -2.365912    -0.688902     3.569948
H     -3.706192    -1.845989     3.411261
