32
Energy = -1142.566075248 Hartree (EUMP2 CORRECTED)
O      1.910028     1.138067    -1.292108
C      2.225087     2.512568    -1.038531
H      2.906168     2.846799    -1.826313
H      2.723441     2.608693    -0.060801
C      0.812257     0.861662    -0.389463
H      0.311937    -0.032785    -0.759694
H      1.197449     0.680294     0.619882
C      0.865340     3.202166    -1.029523
H      0.554914     3.421714    -2.057122
H      0.829301     4.122021    -0.438574
C     -0.056411     2.143186    -0.398644
H     -0.952076     1.985275    -1.018986
O     -0.467879     2.605496     0.881483
P     -1.399190     1.720707     1.963679
O     -2.860209     1.856971     1.587304
O     -0.847413     2.026423     3.331381
O     -0.922815     0.156394     1.559244
C     -1.887307    -0.783662     1.079743
H     -1.470502    -1.262421     0.182180
H     -2.820819    -0.265827     0.825750
C     -2.155422    -1.856921     2.120499
H     -2.949747    -2.512247     1.735254
O     -1.014765    -2.712793     2.323948
C     -0.176717    -2.088108     3.324225
H      0.307566    -2.907076     3.867958
H      0.584800    -1.477155     2.828542
C     -1.095465    -1.218813     4.201253
H     -0.745892    -0.183774     4.227368
H     -1.146560    -1.600953     5.227716
C     -2.471533    -1.299600     3.510484
H     -2.968927    -0.325707     3.461133
H     -3.130749    -2.002624     4.033921
