32
Energy = -1142.572752875 Hartree (EUMP2 CORRECTED)
O      1.276834    -0.255353     0.399516
C      1.761035     0.529799    -0.702166
H      2.456023    -0.100465    -1.266886
H      2.289862     1.420674    -0.335908
C     -0.051748     0.232696     0.751978
H     -0.729127    -0.630521     0.734503
H     -0.044961     0.678041     1.747246
C      0.505230     0.926021    -1.462843
H      0.122512     0.065784    -2.027287
H      0.631417     1.782209    -2.131690
C     -0.436799     1.267723    -0.312846
H     -1.496936     1.188212    -0.592109
O     -0.140939     2.611880     0.072335
P     -1.141656     3.360959     1.212872
O     -1.241777     2.449016     2.422705
O     -2.346555     3.950593     0.528067
O     -0.098477     4.610017     1.541346
C      1.090302     4.317849     2.282672
H      1.952151     4.601145     1.664506
H      1.147991     3.247341     2.519790
C      1.103612     5.114860     3.575612
H      1.990770     4.818565     4.153044
O      1.250108     6.529237     3.341945
C     -0.071810     7.071769     3.120120
H     -0.051384     8.093079     3.517060
H     -0.277886     7.097804     2.045434
C     -1.064020     6.146043     3.849263
H     -1.818845     5.773309     3.153262
H     -1.574397     6.667482     4.667619
C     -0.193286     4.989205     4.378025
H     -0.667718     4.013616     4.232650
H      0.031805     5.130540     5.442116
