32
Energy = -1142.563836535 Hartree (EUMP2 CORRECTED)
O     -0.356105    -0.392784     0.515695
C      1.002102     0.041846     0.325835
H      1.604320    -0.857181     0.164706
H      1.363115     0.574667     1.216823
C     -1.195769     0.755124     0.246736
H     -2.058465     0.391532    -0.321868
H     -1.531003     1.210356     1.185384
C      0.921156     0.984271    -0.864187
H      0.791945     0.405596    -1.788932
H      1.781091     1.652500    -0.960693
C     -0.349429     1.777133    -0.531942
H     -0.882927     2.161791    -1.408774
O     -0.029769     2.853200     0.347445
P      0.040752     4.425320    -0.248257
O      0.214050     5.311317     0.948573
O     -1.041009     4.553376    -1.309003
O      1.508861     4.414103    -1.077206
C      1.468602     4.036190    -2.454495
H      2.496782     3.774243    -2.729990
H      0.825924     3.162090    -2.608271
C      1.002535     5.175024    -3.358854
H      0.629387     5.994595    -2.732121
O      2.133294     5.639571    -4.149779
C      1.617062     6.313300    -5.309989
H      1.791206     7.394167    -5.217477
H      2.180177     5.945718    -6.176541
C      0.114740     5.974264    -5.396096
H     -0.199698     5.733682    -6.418038
H     -0.491516     6.818878    -5.049648
C     -0.023173     4.808021    -4.417838
H      0.270148     3.861123    -4.892557
H     -1.018556     4.698256    -3.978762
