32
Energy = -1142.566075866 Hartree (EUMP2 CORRECTED)
O      1.269885    -0.119818     0.179849
C      1.881416     1.125157    -0.217113
H      2.878926     0.881266    -0.595424
H      1.965460     1.800015     0.644712
C     -0.165503     0.054940     0.093812
H     -0.561304    -0.789694    -0.483708
H     -0.604924     0.060107     1.096319
C      0.927607     1.695403    -1.253533
H      1.028800     1.142104    -2.197889
H      1.042027     2.766282    -1.436915
C     -0.421605     1.401560    -0.594611
H     -1.255378     1.341833    -1.305238
O     -0.684307     2.367239     0.415863
P     -1.642821     3.712499     0.085948
O     -1.040911     4.859864     0.849325
O     -3.099240     3.303902     0.148818
O     -1.264635     3.860763    -1.560414
C     -2.357004     4.090568    -2.450533
H     -2.922358     4.981966    -2.152193
H     -3.045347     3.232115    -2.437639
C     -1.800849     4.293184    -3.848323
H     -2.646510     4.368380    -4.545551
O     -1.094177     5.546773    -3.964738
C      0.291892     5.262691    -3.710274
H      0.864315     6.109456    -4.101572
H      0.458631     5.159326    -2.632770
C      0.538306     3.949602    -4.450624
H      1.397274     3.395489    -4.056146
H      0.718334     4.154864    -5.512506
C     -0.791882     3.196421    -4.261840
H     -0.711019     2.448515    -3.469603
H     -1.106632     2.691129    -5.181802
