32
Energy = -1142.562694242 Hartree (EUMP2 CORRECTED)
O      0.878489    -0.507856     0.627808
C      1.951789     0.378492     0.267523
H      2.834409    -0.243843     0.091604
H      2.154534     1.088684     1.081206
C     -0.357146     0.198886     0.357018
H     -1.030968    -0.511907    -0.133811
H     -0.805702     0.555800     1.289809
C      1.427846     1.108757    -0.959678
H      1.448947     0.437335    -1.828930
H      1.967291     2.032108    -1.188371
C     -0.011913     1.407504    -0.532080
H     -0.723493     1.490661    -1.358508
O     -0.021544     2.582970     0.269202
P     -0.890743     3.955544    -0.183844
O     -0.491175     5.043413     0.769301
O     -2.301665     3.482820    -0.471781
O     -0.236991     4.406830    -1.672622
C     -0.230830     3.589512    -2.830927
H     -1.200550     3.088319    -2.961961
H      0.568781     2.836020    -2.776573
C      0.042565     4.480820    -4.033345
H      0.251712     3.839272    -4.900638
O     -1.092611     5.275856    -4.406565
C     -1.082954     6.457425    -3.572491
H     -1.537625     7.254133    -4.170970
H     -1.686169     6.276294    -2.678293
C      0.390339     6.724093    -3.205466
H      0.503662     6.774134    -2.120751
H      0.753021     7.660332    -3.645744
C      1.149562     5.507741    -3.771834
H      1.903880     5.131656    -3.073369
H      1.639611     5.758536    -4.720360
