32
Energy = -1142.573455399 Hartree (EUMP2 CORRECTED)
O      0.259887    -0.187060    -0.506722
C      1.334708     0.729609    -0.198434
H      2.256100     0.270122    -0.569236
H      1.404606     0.874066     0.887578
C     -0.951511     0.591460    -0.646640
H     -1.402747     0.326372    -1.611884
H     -1.643016     0.345942     0.166331
C      0.940662     2.020502    -0.892074
H      1.096989     1.927979    -1.975666
H      1.432907     2.924058    -0.526315
C     -0.555288     2.070380    -0.582526
H     -1.118824     2.686640    -1.294892
O     -0.787815     2.517424     0.757467
P     -0.844706     4.188249     1.017213
O      0.152164     4.838760     0.090073
O     -0.906838     4.360747     2.513698
O     -2.367201     4.492152     0.364954
C     -3.473990     4.748250     1.230474
H     -3.797386     5.786398     1.074745
H     -3.174647     4.620277     2.278881
C     -4.624610     3.816556     0.895973
H     -5.458351     4.036434     1.578653
O     -5.135993     4.080520    -0.435383
C     -4.587249     3.076328    -1.301823
H     -5.213162     3.054364    -2.199866
H     -3.555762     3.336671    -1.570448
C     -4.641980     1.804895    -0.463783
H     -3.983886     1.012736    -0.838103
H     -5.670583     1.423648    -0.448960
C     -4.225317     2.324971     0.920330
H     -3.144707     2.230759     1.059967
H     -4.725452     1.789231     1.734898
