32
Energy = -1142.565232609 Hartree (EUMP2 CORRECTED)
O      0.906864    -0.274709     0.560185
C      1.394868     0.461022    -0.575390
H      2.020000    -0.226340    -1.153568
H      2.006174     1.311854    -0.240048
C     -0.237936     0.459303     1.053566
H     -0.963239    -0.284554     1.398437
H      0.056544     1.106827     1.888380
C      0.129500     0.926017    -1.278439
H     -0.323460     0.080686    -1.811936
H      0.253467     1.755329    -1.979816
C     -0.761974     1.334183    -0.099131
H     -1.819789     1.162654    -0.319195
O     -0.575479     2.701384     0.286488
P     -1.355920     3.876331    -0.653474
O     -1.789205     4.951785     0.308634
O     -2.253097     3.185573    -1.651928
O     -0.031481     4.457399    -1.526919
C      1.265492     4.432324    -0.945256
H      1.612179     3.404928    -0.779340
H      1.282039     4.959530     0.018354
C      2.179941     5.114819    -1.944443
H      1.901489     6.170783    -2.041588
O      3.547806     5.087316    -1.442674
C      4.310066     4.199962    -2.270377
H      5.357762     4.507312    -2.194244
H      4.217426     3.161862    -1.912138
C      3.696521     4.352454    -3.654323
H      3.955493     3.533779    -4.335820
H      4.028611     5.296874    -4.102131
C      2.206224     4.402780    -3.306393
H      1.796677     3.391063    -3.201907
H      1.595735     4.921271    -4.050546
