32
Energy = -1142.569796408 Hartree (EUMP2 CORRECTED)
O      1.523617     0.017002     0.380587
C      1.795317     0.827962    -0.778268
H      2.538533     0.299035    -1.385473
H      2.204719     1.797305    -0.465602
C      0.106144     0.120145     0.704193
H     -0.357196    -0.860493     0.520235
H     -0.012248     0.409074     1.747503
C      0.447724     1.008819    -1.462609
H      0.183013     0.109562    -2.034344
H      0.393473     1.887745    -2.111493
C     -0.475275     1.154851    -0.257325
H     -1.525806     0.926781    -0.493537
O     -0.363911     2.510652     0.167737
P     -1.045120     3.115132     1.594474
O     -0.929254     2.059775     2.679409
O     -2.330489     3.829955     1.275313
O      0.111090     4.285082     1.836664
C      1.431863     3.853061     2.180254
H      2.119649     4.221791     1.407700
H      1.489154     2.756974     2.221198
C      1.830662     4.422745     3.530514
H      2.817354     4.017871     3.796259
O      1.999149     5.853526     3.489409
C      0.701094     6.449510     3.714718
H      0.886951     7.390350     4.245180
H      0.224881     6.657180     2.751285
C     -0.122304     5.433976     4.529362
H     -1.053388     5.194898     4.010746
H     -0.369506     5.821801     5.524696
C      0.782457     4.189512     4.620564
H      0.225906     3.261468     4.456599
H      1.285134     4.147743     5.594512
