32
Energy = -1142.573319736 Hartree (EUMP2 CORRECTED)
O      1.511756     0.062244    -0.877718
C      1.936652     1.363487    -1.342121
H      2.609167     1.191755    -2.188231
H      2.471319     1.893070    -0.543610
C      0.201690     0.213409    -0.279693
H     -0.467964    -0.507199    -0.767175
H      0.256977     0.002778     0.793448
C      0.642888     2.079461    -1.689958
H      0.235545     1.692851    -2.633970
H      0.724210     3.167856    -1.747871
C     -0.242043     1.656949    -0.516763
H     -1.309683     1.754911    -0.739391
O      0.096063     2.405026     0.652789
P     -0.601178     3.929772     0.860048
O     -1.635162     4.093943    -0.240427
O      0.482907     4.924357     1.166667
O     -1.396020     3.652289     2.302392
C     -2.544951     2.804932     2.289124
H     -2.347515     1.945823     2.944576
H     -2.758214     2.448605     1.271944
C     -3.754888     3.570371     2.798521
H     -4.637914     2.921436     2.710351
O     -3.648102     3.888369     4.198967
C     -2.916170     5.131143     4.307828
H     -3.318995     5.644007     5.188530
H     -1.854258     4.914612     4.459915
C     -3.138802     5.898544     2.990861
H     -2.180806     6.139386     2.524804
H     -3.689174     6.832160     3.156953
C     -3.942491     4.923337     2.108253
H     -3.580332     4.905215     1.075476
H     -5.008213     5.182611     2.116690
