32
Energy = -1142.570576953 Hartree (EUMP2 CORRECTED)
O      1.045448     0.129251     0.673520
C      1.776212     1.366701     0.527349
H      2.834879     1.126259     0.667415
H      1.455257     2.086006     1.292045
C     -0.164582     0.236036    -0.116141
H     -0.198078    -0.632780    -0.785991
H     -1.039316     0.233487     0.541977
C      1.410667     1.857992    -0.862716
H      1.935761     1.266346    -1.625129
H      1.590347     2.919725    -1.042072
C     -0.086279     1.551687    -0.890912
H     -0.486179     1.476553    -1.907357
O     -0.807234     2.528998    -0.135428
P     -1.219596     3.961126    -0.897422
O     -2.695382     4.223040    -0.736507
O     -0.520121     4.012382    -2.245567
O     -0.364885     4.926248     0.181751
C     -0.416948     6.332260    -0.070257
H     -0.969058     6.812121     0.748067
H     -0.932605     6.554728    -1.016006
C      0.995475     6.886753    -0.133735
H      0.936928     7.970999    -0.308556
O      1.664344     6.735045     1.141725
C      2.491702     5.563641     1.042263
H      3.235775     5.633893     1.842500
H      1.880191     4.663553     1.173788
C      3.072246     5.644924    -0.364924
H      3.445734     4.681224    -0.729786
H      3.901348     6.363345    -0.375855
C      1.877072     6.167499    -1.178524
H      1.313859     5.350889    -1.642088
H      2.190789     6.854686    -1.972548
