32
Energy = -1142.570785047 Hartree (EUMP2 CORRECTED)
O      0.812017    -0.495933     0.229281
C      1.862534     0.472603     0.044109
H      2.762119    -0.084876    -0.234153
H      2.042408     1.024307     0.976884
C     -0.445973     0.194921     0.033005
H     -1.055521    -0.429164    -0.630750
H     -0.956899     0.329533     0.992142
C      1.326055     1.402621    -1.031606
H      1.373828     0.909234    -2.012052
H      1.824600     2.374538    -1.075328
C     -0.127505     1.566207    -0.576517
H     -0.824338     1.825910    -1.382482
O     -0.193749     2.545554     0.461847
P     -0.718705     4.082057     0.030625
O     -0.589927     4.932581     1.262595
O     -1.964224     3.942089    -0.819054
O      0.543878     4.538113    -0.994381
C      0.379613     4.562423    -2.410993
H     -0.675268     4.437875    -2.681281
H      0.966555     3.735915    -2.847384
C      0.907550     5.883713    -2.963754
H      1.166306     5.748353    -4.022560
O     -0.086382     6.922802    -2.945785
C     -0.105371     7.453223    -1.600172
H     -0.438549     8.492452    -1.688162
H     -0.821860     6.894025    -0.990429
C      1.328497     7.303648    -1.055384
H      1.309739     6.778202    -0.098220
H      1.810695     8.278916    -0.919350
C      2.053460     6.468839    -2.130271
H      2.686980     5.691878    -1.691381
H      2.669799     7.108740    -2.773450
