32
Energy = -1142.559463264 Hartree (EUMP2 CORRECTED)
O      1.367640     0.031799     0.135250
C      1.698077     1.074573    -0.804402
H      2.409214     0.644938    -1.516271
H      2.171453     1.921627    -0.292079
C      0.118710     0.418249     0.753813
H     -0.475262    -0.495274     0.865508
H      0.302811     0.863986     1.738696
C      0.353372     1.465606    -1.394538
H      0.019730     0.692316    -2.099356
H      0.334977     2.436377    -1.893993
C     -0.548081     1.463479    -0.155991
H     -1.585135     1.219299    -0.404288
O     -0.514970     2.718323     0.539145
P     -1.539715     3.942063    -0.020104
O     -1.909778     4.750009     1.196983
O     -2.519395     3.349359    -1.005242
O     -0.457535     4.847748    -0.946007
C      0.925596     4.923429    -0.632753
H      1.282644     3.999494    -0.170037
H      1.082189     5.745724     0.082005
C      1.735153     5.182566    -1.913382
H      2.376581     6.067766    -1.778027
O      2.631580     4.050751    -2.142152
C      2.642303     3.710806    -3.540418
H      3.682986     3.552209    -3.846444
H      2.086553     2.773006    -3.684237
C      1.955849     4.870402    -4.254916
H      1.502117     4.568875    -5.205797
H      2.674212     5.675642    -4.455772
C      0.934165     5.301692    -3.205159
H      0.078552     4.621266    -3.165726
H      0.544529     6.314044    -3.355608
