32
Energy = -1142.565872280 Hartree (EUMP2 CORRECTED)
O      1.744952    -0.393578    -0.791924
C      2.376066     0.840659    -1.197103
H      3.083874     0.589333    -1.992382
H      2.907548     1.293958    -0.350300
C      0.623423     0.030185     0.003271
H     -0.099011    -0.790914     0.010509
H      0.938526     0.254856     1.031514
C      1.215434     1.726937    -1.630096
H      1.446838     2.791199    -1.569043
H      0.907564     1.458529    -2.648538
C      0.091242     1.328003    -0.648609
H     -0.829436     1.122564    -1.206996
O     -0.335315     2.268851     0.338400
P      0.700839     3.195085     1.297595
O      1.890726     3.617319     0.453587
O      0.840384     2.561007     2.655256
O     -0.329447     4.490043     1.464022
C     -0.627708     5.267414     0.303560
H     -1.696520     5.154800     0.080369
H     -0.039047     4.925770    -0.558982
C     -0.304103     6.727253     0.573337
H     -0.524809     7.304353    -0.336052
O     -1.163274     7.277359     1.596543
C     -0.463556     7.128918     2.847370
H     -0.925538     7.832256     3.548003
H     -0.569769     6.103443     3.215238
C      0.990130     7.452310     2.509375
H      1.691696     6.975764     3.202262
H      1.146483     8.537085     2.548198
C      1.144712     6.927950     1.068545
H      1.689841     5.980329     1.033285
H      1.675546     7.649110     0.436648
