32
Energy = -1142.555366085 Hartree (EUMP2 CORRECTED)
O      0.801211    -0.788543    -0.029174
C     -0.099109    -0.727763    -1.162015
H     -0.405740    -1.756212    -1.378036
H      0.421326    -0.306213    -2.030461
C      0.632896     0.424454     0.741849
H      0.326080     0.139183     1.757492
H      1.582589     0.968295     0.782071
C     -1.224817     0.189870    -0.717839
H     -1.904294    -0.336890    -0.033962
H     -1.789491     0.625416    -1.546764
C     -0.436742     1.257556     0.044611
H     -1.052351     1.842481     0.738550
O      0.232531     2.136179    -0.862035
P     -0.756456     3.287081    -1.625467
O     -1.689621     3.848349    -0.576938
O     -1.251752     2.712769    -2.933455
O      0.458381     4.386988    -1.962003
C      1.810945     4.157422    -1.598367
H      1.942734     4.142333    -0.507354
H      2.143998     3.189227    -1.997973
C      2.664159     5.267600    -2.191524
H      2.151784     5.649707    -3.082197
O      2.806650     6.397921    -1.286417
C      4.187238     6.535205    -0.939358
H      4.361797     7.589240    -0.701858
H      4.425578     5.928635    -0.049671
C      4.946279     6.022344    -2.156810
H      5.993193     5.776734    -1.943731
H      4.917044     6.772657    -2.955692
C      4.093354     4.807094    -2.519435
H      4.370621     3.954617    -1.884213
H      4.185485     4.488543    -3.562514
