32
Energy = -1142.571383370 Hartree (EUMP2 CORRECTED)
O      1.040850     0.260843     0.731258
C      1.739073     1.186604    -0.129008
H      2.558392     0.628815    -0.593093
H      2.146135     2.018983     0.460978
C     -0.311682     0.757693     0.884868
H     -0.992092    -0.084430     0.712262
H     -0.449989     1.146008     1.899046
C      0.670789     1.676306    -1.089557
H      0.432872     0.886572    -1.815471
H      0.900957     2.601457    -1.622025
C     -0.508121     1.883399    -0.138108
H     -1.479246     1.813565    -0.635088
O     -0.383994     3.124132     0.568136
P     -0.903749     4.544240    -0.178868
O     -0.897171     4.314479    -1.676958
O     -0.218861     5.666873     0.546072
O     -2.508516     4.580362     0.333063
C     -3.527914     3.953816    -0.438329
H     -3.100434     3.360775    -1.253560
H     -4.164699     4.733660    -0.889346
C     -4.380888     3.090045     0.474455
H     -5.210485     2.667725    -0.111946
O     -3.624878     1.957592     0.963164
C     -3.223575     2.261995     2.312226
H     -2.983118     1.308401     2.792938
H     -2.340260     2.910704     2.300425
C     -4.440236     2.966446     2.898059
H     -4.206828     3.542197     3.800801
H     -5.211684     2.226329     3.143969
C     -4.880930     3.850673     1.723812
H     -4.387588     4.825500     1.777550
H     -5.965252     4.007510     1.696125
