32
Energy = -1142.572069212 Hartree (EUMP2 CORRECTED)
O      0.716507    -0.459161    -0.328278
C      1.478855     0.476257    -1.126269
H      2.024814    -0.114263    -1.868582
H      2.188387     1.020865    -0.491110
C     -0.474838     0.219582     0.132983
H     -1.341527    -0.374322    -0.186159
H     -0.459056     0.293475     1.225727
C      0.442005     1.423221    -1.704498
H     -0.105683     0.935259    -2.522258
H      0.851992     2.378891    -2.042771
C     -0.476643     1.611518    -0.494782
H     -1.482912     1.962052    -0.756689
O      0.110515     2.507667     0.452924
P     -0.006814     4.154334     0.075337
O     -1.475574     4.421902    -0.202700
O      1.095722     4.570196    -0.864637
O      0.388575     4.714535     1.588925
C     -0.208978     4.116335     2.740895
H      0.569727     3.572732     3.290497
H     -1.000744     3.411278     2.456030
C     -0.805125     5.206523     3.614237
H     -1.262186     4.735060     4.496430
O      0.223340     6.082279     4.131970
C      0.264855     7.231895     3.266721
H      0.770169     8.026652     3.825151
H      0.825794     6.994473     2.356163
C     -1.201623     7.516598     2.960904
H     -1.335998     8.107025     2.047928
H     -1.651382     8.062533     3.799394
C     -1.796894     6.103538     2.839831
H     -1.856142     5.783386     1.794663
H     -2.802336     6.046335     3.272313
