32
Energy = -1142.571696283 Hartree (EUMP2 CORRECTED)
O      0.816629    -0.350773     0.334335
C      1.829952     0.493424    -0.250380
H      2.581571    -0.171120    -0.687724
H      2.294931     1.119531     0.522874
C     -0.419283     0.404979     0.355431
H     -1.196005    -0.230796    -0.086741
H     -0.686612     0.657740     1.386636
C      1.074203     1.351132    -1.251037
H      0.818271     0.756210    -2.138508
H      1.592593     2.265706    -1.548796
C     -0.187878     1.685499    -0.452216
H     -1.051185     1.949464    -1.073922
O      0.081920     2.745480     0.472481
P     -0.344505     4.296016     0.012604
O     -0.045482     5.180878     1.191049
O     -1.675624     4.260604    -0.714552
O      0.854488     4.517003    -1.161789
C      0.523123     5.084082    -2.428329
H     -0.521556     4.868838    -2.685418
H      1.181858     4.622146    -3.174832
C      0.736325     6.590333    -2.414747
H      1.806171     6.805688    -2.275201
O      0.362214     7.126210    -3.717877
C     -0.631615     8.148579    -3.525410
H     -0.481364     8.899912    -4.308405
H     -1.638332     7.717210    -3.633162
C     -0.409614     8.652422    -2.106370
H     -1.280608     9.177962    -1.698413
H      0.451558     9.332529    -2.079765
C     -0.100561     7.342053    -1.380026
H     -1.026932     6.793656    -1.174366
H      0.424877     7.458102    -0.429505
