32
Energy = -1142.568289576 Hartree (EUMP2 CORRECTED)
O      0.660619    -0.530143     0.545662
C      1.910887     0.174129     0.590163
H      2.702106    -0.580362     0.642875
H      1.958710     0.823735     1.475491
C     -0.317643     0.376599    -0.032765
H     -0.904459    -0.199976    -0.754991
H     -0.977924     0.768778     0.745270
C      1.901566     1.003894    -0.684907
H      2.073767     0.350595    -1.550133
H      2.622164     1.827495    -0.694650
C      0.465871     1.527035    -0.687536
H      0.076627     1.750204    -1.685934
O      0.450689     2.698753     0.132978
P     -0.915292     3.697237     0.053190
O     -1.162911     4.268999     1.419923
O     -1.932195     2.950307    -0.785632
O     -0.277614     4.960531    -0.852939
C      0.508172     4.692432    -2.003846
H     -0.131163     4.387414    -2.844959
H      1.240066     3.896156    -1.798982
C      1.266825     5.959635    -2.358399
H      1.919357     5.748251    -3.217275
O      0.373157     7.006116    -2.796191
C      0.115235     7.838543    -1.650547
H     -0.270046     8.788887    -2.033302
H     -0.625452     7.361111    -1.000135
C      1.472695     7.944316    -0.963717
H      1.392079     8.230945     0.090478
H      2.090753     8.686958    -1.482697
C      2.045077     6.529164    -1.149271
H      1.849564     5.915384    -0.265520
H      3.124734     6.542060    -1.336273
