32
Energy = -1142.568818836 Hartree (EUMP2 CORRECTED)
O      0.685685    -0.696286     0.190676
C      1.704603     0.256913    -0.171399
H      2.564914    -0.318955    -0.526487
H      1.994996     0.855099     0.702957
C     -0.591555    -0.018965     0.092342
H     -1.260168    -0.673558    -0.479295
H     -1.003456     0.154176     1.091996
C      1.041791     1.132680    -1.221334
H      0.970612     0.588741    -2.173363
H      1.527753     2.099379    -1.375316
C     -0.348253     1.324054    -0.605911
H     -1.131223     1.557230    -1.337410
O     -0.302347     2.342629     0.395554
P     -0.792026     3.886453    -0.057309
O     -0.632613     4.739848     1.169293
O     -2.043085     3.766564    -0.901576
O      0.491099     4.253792    -1.094185
C      0.275151     4.552458    -2.467594
H     -0.799125     4.564285    -2.683358
H      0.758123     3.782406    -3.094898
C      0.901367     5.905068    -2.769059
H      0.678791     6.163441    -3.815892
O      0.324436     6.947563    -1.969995
C      1.226794     7.192669    -0.873848
H      0.982226     8.186092    -0.485773
H      1.078040     6.440495    -0.091917
C      2.606065     7.098490    -1.522170
H      3.409022     6.932190    -0.794927
H      2.819474     8.024141    -2.070777
C      2.423764     5.920358    -2.493060
H      2.719154     4.983164    -2.009663
H      3.006439     6.035026    -3.413960
