32
Energy = -1142.564261989 Hartree (EUMP2 CORRECTED)
O      1.792878     0.458986    -0.011722
C      1.960872     1.605051    -0.877161
H      2.833695     1.403024    -1.507121
H      2.143306     2.504205    -0.273546
C      0.374726     0.286925     0.236156
H      0.088216    -0.708859    -0.129093
H      0.181682     0.359792     1.310802
C      0.647843     1.721932    -1.630374
H      0.588277     0.954370    -2.414250
H      0.467457     2.707544    -2.063915
C     -0.351940     1.395409    -0.518937
H     -1.330075     1.089386    -0.906888
O     -0.513323     2.482143     0.396303
P     -1.399208     3.824787    -0.123343
O     -1.772103     4.587181     1.121835
O     -2.341690     3.359405    -1.205252
O     -0.160078     4.660918    -0.907067
C      0.582711     5.579497    -0.109900
H     -0.013858     6.468394     0.132565
H      0.871467     5.096351     0.835234
C      1.834997     5.986174    -0.869178
H      2.098250     5.173294    -1.557425
O      1.622700     7.163161    -1.698439
C      2.480217     8.210530    -1.234797
H      2.695190     8.859903    -2.089252
H      1.976104     8.806173    -0.455877
C      3.694750     7.492763    -0.659140
H      4.298036     8.124288     0.003359
H      4.332305     7.128900    -1.473647
C      3.010756     6.329642     0.058486
H      2.634779     6.663052     1.035343
H      3.657163     5.462786     0.228611
