32
Energy = -1142.570232097 Hartree (EUMP2 CORRECTED)
O      1.995310     0.678955     0.859518
C      2.008020     2.108957     0.641052
H      3.055383     2.399570     0.512647
H      1.582811     2.628267     1.508661
C      0.740430     0.165831     0.354999
H      0.972115    -0.629462    -0.365914
H      0.146256    -0.241656     1.179578
C      1.136095     2.319135    -0.584605
H      1.674863     2.022319    -1.494865
H      0.760144     3.340733    -0.683126
C      0.003238     1.330320    -0.305137
H     -0.539019     1.032793    -1.208577
O     -0.915884     1.842620     0.666161
P     -1.878875     3.165905     0.323128
O     -1.096302     4.451083     0.500667
O     -3.220497     2.930006     0.974978
O     -1.987271     2.871859    -1.335351
C     -2.461737     3.934301    -2.161891
H     -1.674383     4.180337    -2.887058
H     -2.676818     4.834939    -1.570038
C     -3.707907     3.482607    -2.902973
H     -4.031681     4.295198    -3.570606
O     -3.394153     2.363814    -3.770804
C     -3.872494     1.176404    -3.116362
H     -3.964954     0.405240    -3.888229
H     -3.157359     0.858323    -2.347790
C     -5.191650     1.608151    -2.490843
H     -5.528098     0.934760    -1.694777
H     -5.966999     1.654278    -3.266009
C     -4.838832     3.007024    -1.966384
H     -4.480050     2.949042    -0.933092
H     -5.694109     3.691758    -1.996020
