32
Energy = -1142.575854163 Hartree (EUMP2 CORRECTED)
O      0.245727    -0.062423     1.175381
C      1.301506     0.805347     0.704097
H      2.243679     0.270120     0.858810
H      1.307833     1.739128     1.280713
C     -0.944946     0.226384     0.402860
H     -1.283522    -0.715197    -0.049114
H     -1.724544     0.624975     1.059990
C      0.954734     1.076329    -0.749379
H      1.187706     0.198667    -1.367706
H      1.441512     1.961777    -1.164769
C     -0.561099     1.258244    -0.655479
H     -1.069584     1.109750    -1.613766
O     -0.894220     2.546348    -0.125054
P     -0.796369     3.862078    -1.157925
O     -1.684489     4.948680    -0.606184
O     -0.852615     3.338892    -2.577592
O      0.809640     4.287834    -0.869423
C      1.129198     5.581711    -0.354294
H      1.841143     5.441502     0.470232
H      0.221083     6.068705     0.023616
C      1.777080     6.451279    -1.418139
H      1.931327     7.452155    -0.989895
O      3.091956     5.983177    -1.779910
C      2.929148     4.999165    -2.826045
H      3.821981     5.075911    -3.457052
H      2.883137     3.999959    -2.379803
C      1.619294     5.335497    -3.561083
H      0.941771     4.478149    -3.566775
H      1.809880     5.644327    -4.595814
C      1.007906     6.488680    -2.740782
H     -0.070291     6.367512    -2.595567
H      1.187588     7.453826    -3.229708
