32
Energy = -1142.567326158 Hartree (EUMP2 CORRECTED)
O      1.731020     0.369604    -0.003864
C      1.928992     1.483611    -0.902442
H      2.753890     1.211746    -1.569411
H      2.202626     2.379748    -0.329351
C      0.322843     0.313944     0.337616
H     -0.052365    -0.675053     0.042149
H      0.202230     0.451474     1.416669
C      0.589247     1.670627    -1.592750
H      0.443362     0.891520    -2.353491
H      0.446337     2.656058    -2.041785
C     -0.373586     1.436508    -0.426834
H     -1.383468     1.172875    -0.760024
O     -0.435362     2.564656     0.451243
P     -1.331530     3.905829    -0.063384
O     -1.600475     4.715752     1.179050
O     -2.354976     3.429872    -1.062984
O     -0.136507     4.690005    -0.956617
C      0.853658     5.349702    -0.179962
H      0.425838     6.239357     0.303573
H      1.235089     4.688835     0.615141
C      2.010766     5.747166    -1.072960
H      2.383291     4.865795    -1.607167
O      1.600172     6.680384    -2.102808
C      1.976178     7.986574    -1.666904
H      1.976957     8.634005    -2.548661
H      1.250318     8.380247    -0.937141
C      3.342178     7.778948    -1.025094
H      3.654733     8.607490    -0.378993
H      4.094805     7.645130    -1.810424
C      3.112083     6.470074    -0.260162
H      2.749579     6.679159     0.754713
H      4.019086     5.863971    -0.166093
