32
Energy = -1142.563542176 Hartree (EUMP2 CORRECTED)
O      1.597787     0.214367     0.194270
C      2.013582     1.391226    -0.534412
H      2.913898     1.115712    -1.092750
H      2.246799     2.204329     0.165384
C      0.161189     0.287965     0.367296
H     -0.265236    -0.645776    -0.021406
H     -0.079852     0.393342     1.430020
C      0.815172     1.750603    -1.394916
H      0.735484     1.052888    -2.239787
H      0.810257     2.780642    -1.758962
C     -0.330373     1.508135    -0.410831
H     -1.297225     1.347559    -0.899939
O     -0.441088     2.592682     0.521363
P     -1.399439     3.890581     0.096226
O     -1.639513     4.714463     1.335654
O     -2.503480     3.423385    -0.830666
O     -0.224277     4.669790    -0.846269
C     -0.659485     5.892095    -1.430232
H     -1.419682     5.713415    -2.204974
H     -1.095299     6.529878    -0.645836
C      0.539935     6.594940    -2.042552
H      1.433237     6.269280    -1.496033
O      0.755463     6.214017    -3.430553
C      0.569416     7.370802    -4.251175
H      1.160655     7.225043    -5.160519
H     -0.491250     7.480023    -4.532046
C      1.017675     8.536886    -3.378961
H      0.666208     9.510148    -3.740861
H      2.112432     8.557469    -3.322986
C      0.409880     8.126823    -2.037197
H     -0.649389     8.415397    -2.004542
H      0.902131     8.570269    -1.166208
