32
Energy = -1142.567322442 Hartree (EUMP2 CORRECTED)
O      1.831533     0.603874     1.345652
C      2.185294     1.722181     0.506025
H      3.256334     1.635619     0.298480
H      1.983067     2.667587     1.026257
C      0.425997     0.320454     1.129196
H      0.340725    -0.751198     0.911001
H     -0.149631     0.566523     2.026819
C      1.284668     1.578245    -0.710445
H      1.647380     0.767529    -1.356893
H      1.175168     2.494935    -1.295896
C     -0.035984     1.189186    -0.044514
H     -0.713246     0.651685    -0.715483
O     -0.665255     2.351705     0.487476
P     -1.902034     3.135431    -0.344677
O     -1.532699     4.598872    -0.425951
O     -3.224545     2.619522     0.166196
O     -1.705676     2.435141    -1.864624
C     -1.186995     3.191721    -2.957165
H     -0.417164     2.580524    -3.448144
H     -0.745145     4.132320    -2.600603
C     -2.295422     3.487537    -3.956091
H     -1.854798     4.012448    -4.816531
O     -2.845651     2.260487    -4.485519
C     -4.020692     1.962205    -3.702777
H     -4.616658     1.258341    -4.293031
H     -3.731143     1.512311    -2.747892
C     -4.683950     3.318487    -3.491006
H     -5.333312     3.329301    -2.609749
H     -5.278471     3.583085    -4.374138
C     -3.479425     4.263446    -3.337295
H     -3.281504     4.493167    -2.287645
H     -3.639224     5.213809    -3.859196
