32
Energy = -1142.566454623 Hartree (EUMP2 CORRECTED)
O      1.927582     0.871964    -1.259120
C      2.517121     2.078618    -0.746921
H      3.409793     2.278428    -1.347857
H      2.784483     1.948995     0.309849
C      0.574739     0.839792    -0.741741
H     -0.058881     0.448205    -1.545770
H      0.525271     0.180209     0.123690
C      1.396608     3.094310    -0.912432
H      1.275641     3.331158    -1.977986
H      1.518693     4.017730    -0.338915
C      0.191678     2.301016    -0.392624
H     -0.738519     2.586288    -0.901608
O     -0.009083     2.639525     0.987705
P      0.131107     1.594173     2.290616
O     -0.353908     2.392734     3.475470
O      1.437688     0.843950     2.220664
O     -1.042452     0.461825     1.874594
C     -2.408202     0.883378     1.900964
H     -2.807566     0.826447     0.878539
H     -2.491382     1.915013     2.269051
C     -3.201498    -0.041945     2.807344
H     -4.254628     0.274653     2.796677
O     -3.195614    -1.394055     2.292168
C     -2.159229    -2.103420     2.997270
H     -2.370514    -3.170627     2.874021
H     -1.181153    -1.857737     2.569753
C     -2.279975    -1.602277     4.432009
H     -1.360713    -1.750375     5.009160
H     -3.098666    -2.129146     4.937552
C     -2.620022    -0.115213     4.236614
H     -1.731022     0.517661     4.310452
H     -3.346509     0.238643     4.976862
