32
Energy = -1142.562680992 Hartree (EUMP2 CORRECTED)
O      1.850408     0.298681    -0.829718
C      0.832748     0.354280    -1.856269
H      0.886677    -0.589883    -2.407523
H      1.031297     1.190151    -2.538224
C      1.381926     1.058571     0.309287
H      1.368734     0.387451     1.178752
H      2.063522     1.894737     0.497800
C     -0.467169     0.574167    -1.102782
H     -0.799237    -0.358991    -0.627784
H     -1.271282     0.981366    -1.721504
C     -0.015065     1.567996    -0.031103
H     -0.689173     1.606607     0.832530
O      0.138796     2.881621    -0.578095
P     -1.297478     3.688507    -0.970778
O     -2.335163     3.348532     0.071474
O     -1.532943     3.499970    -2.455500
O     -0.761089     5.246209    -0.715869
C      0.598288     5.655521    -0.588124
H      1.223387     4.829888    -0.233825
H      0.586250     6.442867     0.176947
C      1.235421     6.223471    -1.885256
H      1.662951     7.208446    -1.661569
O      2.368712     5.423206    -2.290389
C      1.812939     4.386211    -3.126165
H      2.652464     3.932569    -3.662184
H      1.317845     3.631364    -2.505044
C      0.805254     5.110301    -4.014710
H     -0.014067     4.449737    -4.310832
H      1.305223     5.507293    -4.906570
C      0.299468     6.256839    -3.110971
H     -0.737959     6.095514    -2.813033
H      0.377785     7.225983    -3.617069
