32
Energy = -1142.573085696 Hartree (EUMP2 CORRECTED)
O     -0.314716    -0.087588     0.415322
C      0.893588     0.646350     0.725947
H      1.698823    -0.089946     0.815785
H      0.770087     1.178394     1.677176
C     -1.136894     0.738547    -0.444413
H     -1.272134     0.207765    -1.397044
H     -2.110473     0.900872     0.028288
C      1.057587     1.629421    -0.421770
H      1.446338     1.120281    -1.314229
H      1.689568     2.490828    -0.189842
C     -0.394436     2.054635    -0.639897
H     -0.567321     2.517608    -1.616739
O     -0.799808     2.936648     0.407348
P     -0.527094     4.592046     0.205862
O     -0.050280     4.804204    -1.211578
O      0.201239     5.097487     1.431698
O     -2.132907     5.041076     0.313454
C     -2.581678     5.935212     1.331543
H     -3.250565     6.657849     0.847095
H     -1.732627     6.461532     1.786833
C     -3.354204     5.186008     2.408725
H     -3.739255     5.924665     3.127364
O     -4.522170     4.540629     1.852858
C     -4.139130     3.183209     1.552963
H     -5.068759     2.610942     1.462905
H     -3.580193     3.153671     0.612352
C     -3.259779     2.765748     2.727968
H     -2.558076     1.969997     2.458474
H     -3.889250     2.420018     3.557361
C     -2.533026     4.072218     3.095744
H     -1.502245     4.077786     2.733758
H     -2.506529     4.224929     4.180989
