32
Energy = -1142.573985203 Hartree (EUMP2 CORRECTED)
O      0.065791    -0.404436     0.682848
C      1.214964     0.233127     0.079602
H      1.966252    -0.548249    -0.072288
H      1.613528     1.002337     0.753345
C     -1.115749     0.323412     0.268339
H     -1.798054    -0.393679    -0.207055
H     -1.598282     0.773203     1.141866
C      0.680383     0.859324    -1.196537
H      0.520336     0.087656    -1.962020
H      1.297024     1.659887    -1.611386
C     -0.660774     1.406220    -0.708216
H     -1.373412     1.576071    -1.522489
O     -0.466018     2.602595     0.048997
P     -0.298550     4.055146    -0.788322
O     -1.295396     5.032412    -0.208487
O     -0.156808     3.747015    -2.260531
O      1.227692     4.476502    -0.250314
C      1.371433     5.264376     0.933734
H      2.050266     4.731133     1.612573
H      0.397603     5.409106     1.418616
C      1.966645     6.618350     0.586629
H      2.014526     7.219630     1.505829
O      3.327314     6.511275     0.123539
C      3.286597     6.270989    -1.302093
H      4.170904     6.766842    -1.718739
H      3.345714     5.194221    -1.489868
C      1.955100     6.847387    -1.819345
H      1.374243     6.072054    -2.324082
H      2.120475     7.672061    -2.522896
C      1.230877     7.333461    -0.548487
H      0.163738     7.090869    -0.556520
H      1.353426     8.416323    -0.424041
