32
Energy = -1142.572573544 Hartree (EUMP2 CORRECTED)
O      1.092063    -0.346748     0.599311
C      1.792381     0.329449    -0.460644
H      2.491068    -0.392484    -0.896564
H      2.351801     1.186122    -0.061294
C     -0.234305     0.241396     0.716058
H     -0.964230    -0.571584     0.608243
H     -0.354197     0.721840     1.689549
C      0.695378     0.797526    -1.404447
H      0.314940    -0.049767    -1.989895
H      0.992417     1.608062    -2.075829
C     -0.358472     1.272288    -0.409263
H     -1.368278     1.311774    -0.837638
O      0.042080     2.571405     0.033600
P     -1.198386     3.519147     0.686467
O     -1.638138     2.864797     1.984082
O     -2.162084     3.910846    -0.403749
O     -0.241766     4.833757     1.015970
C      0.732406     4.716356     2.057779
H      1.726176     4.827235     1.605536
H      0.661712     3.736794     2.549043
C      0.508461     5.810192     3.087689
H      1.271739     5.707950     3.872408
O      0.718610     7.119913     2.511033
C     -0.576600     7.612404     2.118368
H     -0.478519     8.697506     2.009170
H     -0.875306     7.161528     1.166078
C     -1.499187     7.180358     3.253949
H     -2.547843     7.122415     2.942732
H     -1.420792     7.894080     4.083123
C     -0.928481     5.808194     3.654804
H     -1.502112     4.984590     3.220201
H     -0.920735     5.675508     4.742557
