32
Energy = -1142.569315720 Hartree (EUMP2 CORRECTED)
O      0.599930    -0.416966    -0.082933
C      1.386753     0.409726    -0.972807
H      1.880625    -0.266408    -1.677635
H      2.140926     0.963795    -0.400504
C     -0.550883     0.351911     0.337396
H     -1.450653    -0.218301     0.070360
H     -0.517856     0.502510     1.421851
C      0.385374     1.362517    -1.601826
H     -0.207011     0.842900    -2.367256
H      0.834807     2.266656    -2.021726
C     -0.492098     1.691388    -0.391935
H     -1.483324     2.078933    -0.658249
O      0.167811     2.620182     0.473146
P      0.122641     4.238775    -0.023871
O     -1.337145     4.560313    -0.293029
O      1.212774     4.515794    -1.028268
O      0.588923     4.906559     1.426351
C      0.303499     4.318216     2.694320
H      1.260403     4.102010     3.186913
H     -0.254884     3.381070     2.580976
C     -0.497981     5.292051     3.541572
H     -0.692513     4.822455     4.517494
O      0.275765     6.481387     3.829257
C     -0.165915     7.498144     2.911849
H      0.147616     8.459239     3.332227
H      0.299189     7.344920     1.931221
C     -1.674975     7.300342     2.846957
H     -2.126225     7.753483     1.957449
H     -2.140304     7.736116     3.740024
C     -1.793187     5.768598     2.847338
H     -1.839027     5.388094     1.821398
H     -2.683096     5.422660     3.385963
