32
Energy = -1142.561778774 Hartree (EUMP2 CORRECTED)
O      0.864541     0.147054     0.717201
C      1.668508     1.287027     0.333565
H      2.713328     0.962305     0.364302
H      1.515691     2.110721     1.042425
C     -0.413851     0.260738     0.047002
H     -0.571028    -0.661660    -0.527640
H     -1.211249     0.377256     0.788113
C      1.162323     1.668259    -1.046031
H      1.526513     0.950628    -1.794363
H      1.421646     2.686131    -1.348128
C     -0.345507     1.488596    -0.858764
H     -0.883957     1.359780    -1.804087
O     -0.920456     2.580576    -0.125870
P     -1.214554     3.997938    -0.955300
O     -2.153789     4.842466    -0.132340
O     -1.444063     3.667415    -2.418649
O      0.346742     4.626628    -0.819680
C      0.485201     6.039200    -0.783256
H     -0.470191     6.525299    -1.015759
H      0.756596     6.339285     0.239428
C      1.592435     6.503272    -1.773575
H      2.435630     6.932631    -1.219403
O      2.153251     5.445325    -2.553415
C      1.247468     5.194087    -3.658930
H      1.879631     5.028067    -4.539266
H      0.643752     4.307754    -3.445556
C      0.358325     6.446523    -3.782339
H     -0.656270     6.204559    -3.450253
H      0.298585     6.818618    -4.811371
C      1.028550     7.450746    -2.831172
H      0.331490     8.192440    -2.424206
H      1.850679     7.978105    -3.331064
