32
Energy = -1142.571167594 Hartree (EUMP2 CORRECTED)
O      1.648179    -0.027580     0.133309
C      0.905910    -0.055279    -1.107481
H      1.025564    -1.059913    -1.525306
H      1.313808     0.686170    -1.806134
C      0.990939     0.905079     1.024339
H      0.741611     0.365026     1.947385
H      1.665018     1.737360     1.251775
C     -0.516316     0.305462    -0.716498
H     -1.006742    -0.549257    -0.230955
H     -1.125006     0.667738    -1.549444
C     -0.257720     1.413303     0.308136
H     -1.101137     1.583904     0.989077
O      0.092661     2.639779    -0.337339
P     -1.189977     3.498526    -1.038355
O     -2.310030     3.618074    -0.037634
O     -1.378728     2.956851    -2.444769
O     -0.395799     4.957233    -1.122214
C      0.806975     4.993543    -1.901062
H      0.993692     4.033176    -2.394165
H      1.645318     5.220668    -1.231226
C      0.650319     6.101347    -2.931198
H      0.352195     7.025205    -2.424383
O      1.948270     6.367978    -3.538706
C      1.976353     5.664338    -4.787260
H      2.775418     6.109663    -5.388076
H      2.201745     4.598446    -4.627129
C      0.574548     5.849659    -5.348448
H      0.320621     5.117306    -6.123295
H      0.488174     6.854485    -5.779072
C     -0.293610     5.709588    -4.089098
H     -0.652925     4.684927    -3.940972
H     -1.176567     6.355965    -4.124672
