32
Energy = -1142.564010018 Hartree (EUMP2 CORRECTED)
O      1.241969    -0.123536    -0.097617
C      1.859276     1.046404    -0.669423
H      2.784966     0.712538    -1.149714
H      2.099627     1.770155     0.121263
C     -0.183974     0.130634    -0.020575
H     -0.689401    -0.733473    -0.468573
H     -0.487760     0.239820     1.025814
C      0.809113     1.600687    -1.617852
H      0.754958     0.975351    -2.519245
H      0.947392     2.646082    -1.906817
C     -0.462290     1.428764    -0.782609
H     -1.367652     1.383063    -1.396797
O     -0.594961     2.474869     0.185943
P     -1.318482     3.919588    -0.328030
O     -1.766059     4.604516     0.936461
O     -2.167178     3.626494    -1.539549
O      0.046306     4.720534    -0.912494
C      1.087339     4.955848     0.040477
H      0.779753     5.731658     0.752003
H      1.299178     4.036183     0.601108
C      2.317618     5.424262    -0.727420
H      2.036879     5.555794    -1.785286
O      2.765010     6.693698    -0.198143
C      4.043853     6.927630    -0.793492
H      3.912634     7.439323    -1.759322
H      4.596975     7.588297    -0.119716
C      4.700109     5.538953    -0.989745
H      5.589915     5.411542    -0.364520
H      5.006312     5.397548    -2.032156
C      3.575116     4.565949    -0.601214
H      3.674675     4.248154     0.443077
H      3.539243     3.669491    -1.229645
