32
Energy = -1142.562086152 Hartree (EUMP2 CORRECTED)
O      1.369281     0.062941     0.373031
C      2.022016     1.206800    -0.210777
H      2.958501     0.847977    -0.648846
H      2.237101     1.959503     0.559531
C     -0.045768     0.365065     0.434242
H     -0.577796    -0.508267     0.038252
H     -0.347883     0.552528     1.470035
C      1.011902     1.743224    -1.212084
H      0.981091     1.096399    -2.099714
H      1.198884     2.780374    -1.505411
C     -0.288506     1.627377    -0.406278
H     -1.184200     1.523768    -1.025546
O     -0.402585     2.729724     0.481977
P     -1.297860     4.138770     0.227974
O     -0.331798     5.182625    -0.292423
O     -2.204779     4.306457     1.415055
O     -2.304726     3.720020    -1.061858
C     -1.779340     3.636656    -2.383396
H     -0.816099     3.121128    -2.421836
H     -1.628037     4.649955    -2.788260
C     -2.792329     2.884393    -3.226105
H     -2.439320     2.856705    -4.266806
O     -2.873997     1.500969    -2.801338
C     -4.054625     1.374409    -1.988588
H     -4.310235     0.310412    -1.965898
H     -3.851773     1.739066    -0.974254
C     -5.077635     2.252887    -2.697141
H     -5.920704     2.529610    -2.054497
H     -5.465182     1.727644    -3.578519
C     -4.221327     3.459558    -3.107626
H     -4.242253     4.224059    -2.325858
H     -4.554469     3.910323    -4.049107
