32
Energy = -1142.566884585 Hartree (EUMP2 CORRECTED)
O      1.610157    -0.272309    -1.142940
C      2.429765     0.912089    -1.138244
H      3.279155     0.714036    -1.798920
H      2.787935     1.123660    -0.122862
C      0.355207     0.138041    -0.559683
H     -0.414417    -0.512996    -0.987580
H      0.387426     0.036008     0.528582
C      1.482916     1.998619    -1.630708
H      1.788853     3.012162    -1.357298
H      1.374536     1.919578    -2.719946
C      0.153881     1.627429    -0.939173
H     -0.693921     1.750914    -1.621819
O     -0.174991     2.485802     0.158235
P      0.827601     2.698447     1.499573
O      1.877563     3.729044     1.126711
O      1.175927     1.372165     2.127941
O     -0.330224     3.405001     2.455283
C     -0.774118     4.724363     2.125862
H     -1.839633     4.669512     1.868674
H     -0.210898     5.122430     1.271360
C     -0.577357     5.637805     3.323694
H     -0.931465     6.643375     3.054430
O     -1.401414     5.222358     4.437226
C     -0.573849     4.398444     5.280548
H     -1.058873     4.369567     6.261818
H     -0.502782     3.388481     4.863292
C      0.780492     5.100694     5.274420
H      1.604054     4.423239     5.524621
H      0.772157     5.922443     6.000879
C      0.879969     5.640226     3.836189
H      1.501447     5.001090     3.202483
H      1.302381     6.651141     3.812122
