32
Energy = -1142.565331328 Hartree (EUMP2 CORRECTED)
O      1.108040    -0.111557     0.669397
C      1.664793     0.737901    -0.350534
H      2.456896     0.164531    -0.841889
H      2.097206     1.641425     0.102508
C     -0.207021     0.412852     0.972032
H     -0.869110    -0.450353     1.098988
H     -0.177636     0.999432     1.897639
C      0.473562     1.075582    -1.232854
H      0.214103     0.203959    -1.847820
H      0.599230     1.945517    -1.883037
C     -0.623506     1.325141    -0.192332
H     -1.619259     1.095844    -0.584003
O     -0.607973     2.673651     0.294029
P     -1.391083     3.840838    -0.648670
O     -1.784649     4.928768     0.316977
O     -2.306397     3.152041    -1.630256
O     -0.083439     4.397185    -1.559630
C      1.133557     4.655260    -0.862124
H      1.645415     3.713296    -0.632790
H      0.921341     5.160744     0.089021
C      2.066092     5.521063    -1.734962
H      2.200099     6.512355    -1.289444
O      3.395111     4.948180    -1.783584
C      3.373936     3.930214    -2.808356
H      4.337994     3.989096    -3.324982
H      3.289757     2.939079    -2.342579
C      2.170577     4.238245    -3.723045
H      1.382441     3.489586    -3.602588
H      2.455697     4.270050    -4.780531
C      1.666564     5.590722    -3.203341
H      0.591984     5.721825    -3.341932
H      2.210130     6.419770    -3.673146
