32
Energy = -1142.557562137 Hartree (EUMP2 CORRECTED)
O      1.355096     0.027233     0.926161
C      1.912238     0.967803    -0.015024
H      2.852416     0.537674    -0.372769
H      2.103615     1.931876     0.473180
C     -0.072265     0.254324     0.962940
H     -0.560047    -0.723351     0.864521
H     -0.358167     0.721895     1.910939
C      0.834018     1.112430    -1.075913
H      0.804635     0.212035    -1.705677
H      0.944988     2.003855    -1.700027
C     -0.419662     1.198697    -0.197214
H     -1.339110     0.876921    -0.700741
O     -0.557886     2.495760     0.353404
P     -1.072584     3.906699    -0.423825
O     -0.012166     4.948622    -0.198197
O     -2.539294     4.066538    -0.091701
O     -0.985108     3.553230    -2.073820
C     -1.719712     2.501162    -2.690867
H     -2.569886     2.190086    -2.069310
H     -1.052794     1.644425    -2.870475
C     -2.257677     2.987732    -4.034013
H     -2.498067     2.112622    -4.653463
O     -3.486328     3.716043    -3.907424
C     -3.125376     5.062850    -3.515082
H     -3.930745     5.708905    -3.879290
H     -3.069998     5.118348    -2.423694
C     -1.759864     5.345282    -4.174463
H     -1.048200     5.711172    -3.431142
H     -1.846489     6.087012    -4.977180
C     -1.313420     3.975472    -4.728730
H     -0.260942     3.766717    -4.513321
H     -1.472469     3.920231    -5.812292
