32
Energy = -1142.571870985 Hartree (EUMP2 CORRECTED)
O      1.344305     0.072132     0.495013
C      1.805539     1.082871    -0.426991
H      2.617760     0.636910    -1.009816
H      2.183174     1.952679     0.127012
C     -0.060399     0.316855     0.753890
H     -0.604797    -0.607224     0.519475
H     -0.204219     0.576257     1.807123
C      0.573125     1.450314    -1.234498
H      0.346080     0.649707    -1.952869
H      0.640566     2.393538    -1.776328
C     -0.494573     1.480691    -0.142008
H     -1.516180     1.345981    -0.518939
O     -0.408752     2.680561     0.632205
P     -1.481208     3.924900     0.255893
O     -0.874570     5.195352     0.792975
O     -2.881307     3.428866     0.525254
O     -1.354118     3.917816    -1.429266
C     -0.444734     4.840989    -2.024979
H      0.596867     4.586293    -1.781901
H     -0.634408     5.858402    -1.655468
C     -0.651463     4.774854    -3.525890
H      0.007359     5.510209    -4.008402
O     -0.241405     3.483862    -4.042009
C     -1.434520     2.701258    -4.214960
H     -1.183949     1.889501    -4.905526
H     -1.758198     2.292333    -3.250124
C     -2.449675     3.699260    -4.758754
H     -3.485438     3.363181    -4.637360
H     -2.259223     3.871905    -5.825002
C     -2.131570     4.954305    -3.931971
H     -2.753505     4.986473    -3.032919
H     -2.285994     5.878449    -4.499861
