32
Energy = -1142.564195691 Hartree (EUMP2 CORRECTED)
O      1.553063     0.295194     0.775024
C      2.058862     1.327364    -0.096157
H      2.974869     0.937233    -0.551428
H      2.287946     2.232592     0.481311
C      0.113713     0.456977     0.866336
H     -0.339558    -0.510686     0.615000
H     -0.164776     0.752064     1.882924
C      0.921127     1.586218    -1.071234
H      0.858901     0.768168    -1.801461
H      0.979388     2.547084    -1.590373
C     -0.280930     1.555512    -0.126807
H     -1.223537     1.321705    -0.627267
O     -0.344117     2.804605     0.553186
P     -1.732098     3.756591     0.658028
O     -1.672273     4.816797    -0.420129
O     -1.961982     4.031199     2.119386
O     -2.885340     2.619644     0.176400
C     -3.408856     2.702375    -1.145715
H     -2.609045     2.653258    -1.896434
H     -3.944518     3.651118    -1.293145
C     -4.349389     1.525957    -1.318775
H     -4.787450     1.562316    -2.326362
O     -3.608027     0.280398    -1.253810
C     -3.838757    -0.287444     0.046427
H     -3.601546    -1.353657    -0.026067
H     -3.189876     0.195334     0.787812
C     -5.305569     0.015688     0.322696
H     -5.566638    -0.063842     1.383882
H     -5.937982    -0.675440    -0.247817
C     -5.427317     1.447536    -0.215818
H     -5.192767     2.169848     0.571620
H     -6.426183     1.667315    -0.608843
