32
Energy = -1142.573836369 Hartree (EUMP2 CORRECTED)
O      1.297556     0.130115     0.385252
C      1.704083     1.043549    -0.664786
H      2.492306     0.539838    -1.234267
H      2.102702     1.966877    -0.228828
C     -0.118148     0.310221     0.618920
H     -0.622011    -0.644913     0.412877
H     -0.282668     0.597969     1.662192
C      0.434211     1.314968    -1.452531
H      0.194580     0.461878    -2.103015
H      0.453349     2.228337    -2.050108
C     -0.596336     1.408581    -0.325651
H     -1.625394     1.263230    -0.674344
O     -0.480039     2.641214     0.387888
P     -0.934044     4.073208    -0.382058
O     -1.570027     4.941536     0.674409
O     -1.529017     3.744370    -1.729000
O      0.608781     4.669008    -0.685795
C      1.377645     5.058185     0.450563
H      1.519941     4.203451     1.125729
H      0.862431     5.859347     1.001328
C      2.722991     5.545549    -0.051268
H      3.314060     5.895930     0.806303
O      3.482934     4.456714    -0.630608
C      3.331904     4.549227    -2.056093
H      4.148894     3.971268    -2.499917
H      2.364140     4.132182    -2.359070
C      3.398425     6.046600    -2.333197
H      2.977665     6.319947    -3.307403
H      4.442609     6.380107    -2.296334
C      2.596256     6.620212    -1.155414
H      1.543937     6.737026    -1.429119
H      2.980585     7.590417    -0.821458
