32
Energy = -1142.565072376 Hartree (EUMP2 CORRECTED)
O      1.268468    -0.403801     0.130822
C      0.341203    -0.528969    -0.972739
H      0.260039    -1.597147    -1.198542
H      0.727303     0.006084    -1.849309
C      0.876966     0.749798     0.914129
H      0.692180     0.409107     1.941822
H      1.682495     1.491111     0.907547
C     -0.942228     0.115030    -0.478522
H     -1.462232    -0.554850     0.220000
H     -1.618265     0.422159    -1.281210
C     -0.381485     1.325994     0.272325
H     -1.080622     1.748058     1.005342
O      0.035520     2.344788    -0.636440
P     -1.201724     3.271357    -1.335528
O     -2.128074     3.730455    -0.238516
O     -1.673951     2.554657    -2.586458
O     -0.219491     4.542159    -1.771644
C      0.618411     4.314049    -2.897307
H      1.387986     3.566719    -2.646041
H      0.031305     3.928906    -3.743030
C      1.288247     5.611833    -3.295124
H      0.525296     6.381246    -3.455168
O      2.143270     6.123458    -2.242845
C      3.481955     5.747524    -2.563190
H      4.147065     6.385773    -1.974247
H      3.669362     4.695335    -2.294449
C      3.567421     5.953822    -4.070233
H      4.418224     5.443574    -4.536544
H      3.642217     7.025815    -4.285135
C      2.210317     5.400093    -4.520991
H      2.290558     4.328815    -4.746836
H      1.822842     5.895368    -5.417339
