32
Energy = -1142.571690918 Hartree (EUMP2 CORRECTED)
O      2.064668     0.394237    -0.531763
C      2.172596     1.728386    -1.078740
H      2.949441     1.692914    -1.848866
H      2.463635     2.434049    -0.290616
C      0.701344     0.207253    -0.090401
H      0.306527    -0.685227    -0.594889
H      0.681106     0.059709     0.994241
C      0.780401     2.037544    -1.597148
H      0.592821     1.479012    -2.524989
H      0.565355     3.094839    -1.760464
C     -0.083540     1.465734    -0.470668
H     -1.109389     1.243619    -0.792473
O     -0.081820     2.309432     0.682326
P     -0.855997     3.806581     0.657769
O     -1.301298     4.084544    -0.767035
O     -0.041656     4.745237     1.502320
O     -2.215288     3.440801     1.564061
C     -3.375854     2.913432     0.922037
H     -3.629382     1.958089     1.402268
H     -3.190349     2.756166    -0.149003
C     -4.536558     3.882206     1.079193
H     -5.397932     3.483755     0.524019
O     -4.974076     3.990625     2.446748
C     -4.156458     4.998290     3.087584
H     -4.801669     5.486036     3.827146
H     -3.315088     4.514452     3.593054
C     -3.660423     5.946453     1.979627
H     -2.568977     5.991194     1.978535
H     -4.051398     6.961977     2.114365
C     -4.182858     5.314956     0.674043
H     -3.438538     5.338177    -0.128049
H     -5.093935     5.823367     0.335476
